Circuit: * D:\Usuário\Documents\GitHub\EEL7303\Laboratorios\LAB06\Simulação\LAB06.asc

Direct Newton iteration for .op point succeeded.
N-Period=1
Fourier components of V(vo)
DC component:2.70421e-005

Harmonic	Frequency	 Fourier 	Normalized	 Phase  	Normalized
 Number 	  [Hz]   	Component	 Component	[degree]	Phase [deg]
    1   	1.000e+04	4.805e+00	1.000e+00	  170.75°	    0.00°
    2   	2.000e+04	5.107e-01	1.063e-01	  121.28°	  -49.47°
    3   	3.000e+04	2.213e-01	4.606e-02	  156.79°	  -13.96°
    4   	4.000e+04	9.373e-02	1.951e-02	  171.69°	    0.93°
    5   	5.000e+04	4.490e-02	9.345e-03	  177.20°	    6.45°
    6   	6.000e+04	2.271e-02	4.727e-03	 -178.02°	 -348.77°
    7   	7.000e+04	1.135e-02	2.363e-03	 -173.99°	 -344.74°
    8   	8.000e+04	5.689e-03	1.184e-03	 -171.32°	 -342.07°
    9   	9.000e+04	2.798e-03	5.823e-04	 -169.03°	 -339.79°
Total Harmonic Distortion: 11.796152%(11.796212%)



Date: Tue Jul 02 11:24:55 2019
Total elapsed time: 0.205 seconds.

tnom = 27
temp = 27
method = modified trap
totiter = 20206
traniter = 20201
tranpoints = 10018
accept = 10018
rejected = 0
matrix size = 13
fillins = 0
solver = Normal
Matrix Compiler1: 558 bytes object code size  0.1/0.1/[0.0]
Matrix Compiler2: 979 bytes object code size  0.1/0.1/[0.0]

