Circuit: * C:\Users\Gustavo\Documents\GitHub\EEL7303\Laboratorios\Projeto\Simulação\TemperatureSensorAlpha\Temperature_Sensor_Alpha.asc

WARNING: Specified period is not longer than the sum of Trise, Tfall, and Ton for v§gnd_enable.  Increasing period to 1.04
Limiting rise time of source v§start_up_lock to 1.95399e-015
Limiting fall time of source v§start_up_lock to 1.95399e-015
Direct Newton iteration failed to find .op point.  (Use ".option noopiter" to skip.)
Starting Gmin stepping
Gmin = 10
Gmin = 1.07374
Gmin = 0.115292
Gmin = 0.0123794
Gmin = 0.00132923
Gmin = 0.000142725
Gmin = 1.5325e-005
Gmin = 1.6455e-006
Gmin = 1.76685e-007
Gmin = 1.89714e-008
Gmin = 2.03704e-009
Gmin = 2.18725e-010
Gmin = 2.34854e-011
Gmin = 2.52173e-012
Gmin = 2.70769e-013
Gmin = 0
Gmin stepping failed

Starting source stepping with srcstepmethod=0
Source Step = 3.0303%
vernier = 0.25
Source Step = 0.0177557%
Starting source stepping with srcstepmethod=1
Source Step = 3.0303%
vernier = 0.25
Source stepping failed

Pseudo transient terminated at 102.326 s, solution accepted ready or not!
Changing Tseed to 1e-007
Changing Tseed to 1e-009
Changing Tseed to 1e-006
Changing Tseed to 1e-010

Date: Sun May 12 17:55:03 2019
Total elapsed time: 40.976 seconds.

tnom = 27
temp = 27
method = modified trap
totiter = 288250
traniter = 281015
tranpoints = 114673
accept = 89150
rejected = 25520
matrix size = 94
fillins = 185
solver = Normal
Thread vector: 383.4/45.1[3] 18.7/9.6[3] 3.1/5.2[1] 3.0/2.0[2]  2592/500
Matrix Compiler1: 14.61 KB object code size  12.9/7.2/[3.1]
Matrix Compiler2: off  [3.6]/7.9/4.0

