Circuit: * C:\users\andre\My Documents\University\AnalogCircuits\Project\TemperatureSensorAlpha\Temperature_Sensor_Alpha.asc

WARNING: Specified period is not longer than the sum of Trise, Tfall, and Ton for v§gnd_enable.  Increasing period to 1.04
Limiting rise time of source v§start_up_lock to 1.95399e-015
Limiting fall time of source v§start_up_lock to 1.95399e-015
Direct Newton iteration failed to find .op point.  (Use ".option noopiter" to skip.)
Starting Gmin stepping
Gmin = 10
Gmin = 1.07374
Gmin = 0.115292
Gmin = 0.0123794
Gmin = 0.00132923
Gmin = 0.000142725
Gmin = 1.5325e-005
Gmin = 1.6455e-006
Gmin = 1.76685e-007
Gmin = 1.89714e-008
Gmin = 2.03704e-009
Gmin = 2.18725e-010
Gmin = 2.34854e-011
Gmin = 2.52173e-012
Gmin = 2.70769e-013
Gmin = 0
Gmin stepping failed

Starting source stepping with srcstepmethod=0
Source Step = 3.0303%
vernier = 0.25
Source Step = 0.0177557%
Starting source stepping with srcstepmethod=1
Source Step = 3.0303%
vernier = 0.25
Source stepping failed

Pseudo transient terminated at 102.326 s, solution accepted ready or not!
.step temp=100°C
Changing Tseed to 1e-007
Changing Tseed to 1e-009
Changing Tseed to 1e-006
Changing Tseed to 1e-010
.step temp=120°C

Date: Sun May 12 15:42:25 2019
Total elapsed time: 19.207 seconds.

tnom = 27
temp = 120
method = modified trap
totiter = 306642
traniter = 297639
tranpoints = 119783
accept = 92842
rejected = 26946
matrix size = 94
fillins = 177
solver = Normal
Thread vector: 24.4/12.0[3] 8.4/5.3[3] 1.8/2.4[1] 1.7/2.7[1]  2592/500
Matrix Compiler1: 13.80 KB object code size  4.6/2.8/[1.9]
Matrix Compiler2: 10.77 KB object code size  2.3/3.2/[2.4]

