Circuit: * D:\Usuário\Documents\GitHub\EEL7303\Laboratorios\LAB08\Simulação\Lab08.asc

Warning: Multiple definitions of model "ca3046" Type: BJT
Direct Newton iteration for .op point succeeded.

Date: Mon May 20 08:43:35 2019
Total elapsed time: 0.151 seconds.

tnom = 27
temp = 27
method = modified trap
totiter = 10046
traniter = 10034
tranpoints = 5018
accept = 5018
rejected = 0
matrix size = 9
fillins = 0
solver = Normal
Matrix Compiler1: 626 bytes object code size  0.1/0.1/[0.0]
Matrix Compiler2:      61 opcodes  0.1/[0.1]/0.1

