Circuit: * D:\Usuário\Documents\GitHub\EEL7303\Laboratorios\LAB09\Simulação\Lab09.asc

WARNING: Less than two connections to node NC_01.  This node is used by V1.
Warning: Pd = 0 is less than W.
Warning: Ps = 0 is less than W.
Warning: Pd = 0 is less than W.
Warning: Ps = 0 is less than W.
Direct Newton iteration for .op point succeeded.

Date: Mon May 27 10:56:51 2019
Total elapsed time: 0.141 seconds.

tnom = 27
temp = 27
method = modified trap
totiter = 4137
traniter = 4105
tranpoints = 2049
accept = 2042
rejected = 7
matrix size = 13
fillins = 0
solver = Normal
Matrix Compiler1: 854 bytes object code size  0.1/0.1/[0.1]
Matrix Compiler2: off  [0.1]/0.1/0.2

