Circuit: * D:\Usuário\Documents\GitHub\EEL7303\Laboratorios\LAB10\Simulação\Lab10.asc

Early termination of direct N-R iteration.
Direct Newton iteration failed to find .op point.  (Use ".option noopiter" to skip.)
Starting Gmin stepping
Gmin = 10
vernier = 0.5
vernier = 0.25
vernier = 0.125
Gmin = 5.5165
vernier = 0.0625
vernier = 0.03125
vernier = 0.015625
vernier = 0.0078125
Gmin = 5.49501
vernier = 0.00390625
vernier = 0.00195313
vernier = 0.000976563
vernier = 0.000488281
Gmin = 5.50104
Gmin = 0
Gmin stepping failed

Starting source stepping with srcstepmethod=0
Source Step = 3.0303%
Source Step = 33.3333%
Source Step = 63.6364%
Source Step = 93.9394%
Source stepping succeeded in finding the operating point.

N-Period=1
Fourier components of V(v1_2)
DC component:-1.71467e-005

Harmonic	Frequency	 Fourier 	Normalized	 Phase  	Normalized
 Number 	  [Hz]   	Component	 Component	[degree]	Phase [deg]
    1   	5.000e+03	4.309e-06	1.000e+00	   97.02°	    0.00°
    2   	1.000e+04	6.001e-07	1.392e-01	  -82.22°	 -179.25°
    3   	1.500e+04	2.098e-07	4.869e-02	  -77.73°	 -174.75°
    4   	2.000e+04	1.118e-07	2.595e-02	  -73.63°	 -170.65°
    5   	2.500e+04	7.085e-08	1.644e-02	  -69.84°	 -166.86°
    6   	3.000e+04	4.948e-08	1.148e-02	  -65.17°	 -162.19°
    7   	3.500e+04	3.708e-08	8.606e-03	  -62.09°	 -159.11°
    8   	4.000e+04	2.912e-08	6.757e-03	  -58.37°	 -155.39°
    9   	4.500e+04	2.372e-08	5.504e-03	  -55.71°	 -152.73°
Total Harmonic Distortion: 15.161301%(15.204519%)



Date: Sat Jun 08 09:33:37 2019
Total elapsed time: 6.292 seconds.

tnom = 27
temp = 27
method = modified trap
totiter = 153087
traniter = 151397
tranpoints = 63820
accept = 58545
rejected = 5275
matrix size = 194
fillins = 2003
solver = Normal
Thread vector: 9.4/5.9[5] 3.6/3.8[1] 4.2/4.1[1] 1.3/2.0[1]  2592/500
Matrix Compiler1: 265.88 KB object code size  39.6/23.5/[18.6]
Matrix Compiler2: 52.25 KB object code size  9.0/5.6/[2.9]

