Circuit: * D:\Usuário\Documents\GitHub\EEL7303\Laboratorios\LAB10\Simulação\Lab10.asc

Early termination of direct N-R iteration.
Direct Newton iteration failed to find .op point.  (Use ".option noopiter" to skip.)
Starting Gmin stepping
Gmin = 10
vernier = 0.5
vernier = 0.25
vernier = 0.125
Gmin = 5.5165
vernier = 0.0625
vernier = 0.03125
vernier = 0.015625
vernier = 0.0078125
Gmin = 5.49501
vernier = 0.00390625
vernier = 0.00195313
vernier = 0.000976563
vernier = 0.000488281
Gmin = 5.50104
Gmin = 0
Gmin stepping failed

Starting source stepping with srcstepmethod=0
Source Step = 3.0303%
Source Step = 33.3333%
Source Step = 63.6364%
Source Step = 93.9394%
Source stepping succeeded in finding the operating point.


Date: Tue Jun 04 12:52:41 2019
Total elapsed time: 1.874 seconds.

tnom = 27
temp = 27
method = modified trap
totiter = 52267
traniter = 50598
tranpoints = 23073
accept = 21898
rejected = 1175
matrix size = 97
fillins = 1093
solver = Normal
Thread vector: 6.1/5.1[2] 1.7/1.6[1] 2.6/2.2[2] 10.8/1.4[2]  2592/500
Matrix Compiler1: 154.07 KB object code size  17.1/9.5/[4.7]
Matrix Compiler2: 27.64 KB object code size  4.5/3.1/[1.3]

