Circuit: * D:\Usuário\Documents\GitHub\EEL7303\Laboratorios\LAB04\Simulação\Lab04_2.asc

Direct Newton iteration for .op point succeeded.
N-Period=1
Fourier components of V(vo)
DC component:-0.379534

Harmonic	Frequency	 Fourier 	Normalized	 Phase  	Normalized
 Number 	  [Hz]   	Component	 Component	[degree]	Phase [deg]
    1   	1.000e+03	1.072e-01	1.000e+00	   -0.01°	    0.00°
    2   	2.000e+03	4.505e-04	4.203e-03	  -89.86°	  -89.85°
    3   	3.000e+03	1.400e-05	1.306e-04	   -0.13°	   -0.12°
    4   	4.000e+03	3.755e-07	3.504e-06	  -90.97°	  -90.97°
    5   	5.000e+03	3.820e-08	3.564e-07	 -173.54°	 -173.54°
    6   	6.000e+03	8.180e-09	7.632e-08	   53.74°	   53.75°
    7   	7.000e+03	5.522e-09	5.152e-08	  -17.60°	  -17.60°
    8   	8.000e+03	6.924e-09	6.460e-08	  -28.65°	  -28.65°
    9   	9.000e+03	7.683e-09	7.168e-08	  -14.18°	  -14.17°
Total Harmonic Distortion: 0.420527%(0.420718%)



Date: Thu Apr 25 15:31:47 2019
Total elapsed time: 12.619 seconds.

tnom = 27
temp = 27
method = modified trap
totiter = 1000042
traniter = 1000034
tranpoints = 500018
accept = 500018
rejected = 0
matrix size = 23
fillins = 20
solver = Normal
Matrix Compiler1: 2.66 KB object code size  0.3/0.2/[0.1]
Matrix Compiler2: 2.27 KB object code size  0.1/0.2/[0.1]

