Circuit: * D:\Usuário\Documents\GitHub\EEL7303\Laboratorios\LAB04\Simulação\Lab04.asc

Direct Newton iteration for .op point succeeded.
N-Period=1
Fourier components of V(vo)
DC component:-0.0062591

Harmonic	Frequency	 Fourier 	Normalized	 Phase  	Normalized
 Number 	  [Hz]   	Component	 Component	[degree]	Phase [deg]
    1   	1.000e+03	1.283e+00	1.000e+00	    0.02°	    0.00°
    2   	2.000e+03	2.487e-03	1.938e-03	   89.44°	   89.42°
    3   	3.000e+03	1.923e-01	1.499e-01	  179.69°	  179.67°
    4   	4.000e+03	2.007e-03	1.564e-03	   89.55°	   89.54°
    5   	5.000e+03	8.807e-02	6.865e-02	  179.38°	  179.37°
    6   	6.000e+03	1.447e-03	1.128e-03	   89.35°	   89.33°
    7   	7.000e+03	4.279e-02	3.335e-02	  178.98°	  178.96°
    8   	8.000e+03	9.008e-04	7.021e-04	   89.15°	   89.13°
    9   	9.000e+03	1.874e-02	1.461e-02	  178.39°	  178.37°
Total Harmonic Distortion: 16.884663%(16.905087%)



Date: Wed Apr 24 11:29:56 2019
Total elapsed time: 8.058 seconds.

tnom = 27
temp = 27
method = modified trap
totiter = 1000039
traniter = 1000034
tranpoints = 500018
accept = 500018
rejected = 0
matrix size = 16
fillins = 8
solver = Normal
Matrix Compiler1: 1.39 KB object code size  0.2/0.1/[0.0]
Matrix Compiler2: 1.37 KB object code size  0.1/0.1/[0.1]

