Circuit: * D:\Usuário\Documents\GitHub\EEL7303\Laboratorios\LAB04\Lab04.asc

Direct Newton iteration for .op point succeeded.

Date: Fri Apr 12 09:16:23 2019
Total elapsed time: 8.292 seconds.

tnom = 27
temp = 27
method = modified trap
totiter = 1000139
traniter = 1000134
tranpoints = 500018
accept = 500018
rejected = 0
matrix size = 16
fillins = 8
solver = Normal
Matrix Compiler1: 1.39 KB object code size  0.2/0.1/[0.1]
Matrix Compiler2: 1.37 KB object code size  0.1/0.1/[0.1]

