Circuit: * Z:\home\andre\Downloads\BrokawCircuit\BrokawCell.asc

Direct Newton iteration failed to find .op point.  (Use ".option noopiter" to skip.)
Starting Gmin stepping
Gmin = 10
Gmin = 1.07374
Gmin = 0.115292
Gmin = 0.0123794
Gmin = 0.00132923
Gmin = 0.000142725
Gmin = 1.5325e-005
Gmin = 1.6455e-006
Gmin = 1.76685e-007
Gmin = 1.89714e-008
Gmin = 2.03704e-009
Gmin = 2.18725e-010
Gmin = 2.34854e-011
Gmin = 2.52173e-012
Gmin = 2.70769e-013
Gmin = 0
Gmin stepping succeeded in finding the operating point.


Date: Thu Mar 28 20:48:07 2019
Total elapsed time: 0.126 seconds.

tnom = 27
temp = 27
method = modified trap
totiter = 2479
traniter = 2082
tranpoints = 1042
accept = 1042
rejected = 0
matrix size = 20
fillins = 26
solver = Normal
Matrix Compiler1: 3.34 KB object code size  2.3/1.2/[1.0]
Matrix Compiler2: 2.38 KB object code size  1.3/1.6/[1.0]

