Circuit: * C:\Users\gusta\Documents\GitHub\EEL7303\Laboratorios\Projeto - Amplificador Classe D em Ponte H\Simulação\V1\AmplificadorClasseD-V1.asc

Direct Newton iteration failed to find .op point.  (Use ".option noopiter" to skip.)
Starting Gmin stepping
Gmin = 10
Gmin = 1.07374
vernier = 0.5
vernier = 0.25
vernier = 0.125
vernier = 0.0625
vernier = 0.03125
Gmin = 1.0412
vernier = 0.015625
vernier = 0.0078125
Gmin = 1.0132
vernier = 0.00390625
vernier = 0.00195313
Gmin = 1.00827
vernier = 0.00260417
vernier = 0.00130208
Gmin = 1.00515
vernier = 0.00173611
vernier = 0.000868055
vernier = 0.000434028
Gmin = 1.00406
vernier = 0.000578703
vernier = 0.000434027
Gmin = 1.00312
Gmin = 0
Gmin stepping failed

Starting source stepping with srcstepmethod=0
Source Step = 3.0303%
Source Step = 33.3333%
vernier = 0.25
Source Step = 33.1439%
Source Step = 35.0379%
Source Step = 36.9318%
Source Step = 38.8258%
Source Step = 40.7197%
vernier = 0.09375
Source Step = 43.1818%
Source Step = 46.0227%
Source Step = 48.8636%
Source Step = 51.7045%
Source Step = 54.5455%
vernier = 0.140625
Source Step = 58.0966%
Source Step = 62.358%
Source Step = 66.6193%
Source Step = 70.8807%
Source Step = 75.142%
vernier = 0.210938
Source Step = 80.2557%
Source Step = 86.6477%
Source Step = 93.0398%
Source Step = 99.4318%
Source stepping succeeded in finding the operating point.


Date: Sun Sep 29 22:04:02 2019
Total elapsed time: 3.532 seconds.

tnom = 27
temp = 27
method = modified trap
totiter = 278716
traniter = 273017
tranpoints = 87721
accept = 62788
rejected = 24933
matrix size = 57
fillins = 74
solver = Normal
Thread vector: 8.1/5.6[2] 2.8/2.5[2] 2.5/3.7[1] 0.3/2.1[1]  2592/500
Matrix Compiler1: 6.64 KB object code size  1.7/0.7/[0.4]
Matrix Compiler2: 6.80 KB object code size  0.9/1.3/[0.6]

