Circuit: * D:\Usuário\Documents\GitHub\EEL7303\Laboratorios\LAB01\Simulação\Lab01.asc

Direct Newton iteration for .op point succeeded.

Date: Fri Mar 22 08:46:39 2019
Total elapsed time: 0.028 seconds.

tnom = 27
temp = 27
method = trap
totiter = 5
traniter = 0
tranpoints = 0
accept = 0
rejected = 0
matrix size = 17
fillins = 0
solver = Normal
Matrix Compiler1:      61 opcodes
Matrix Compiler2: 1.39 KB object code size
