Circuit: * C:\Users\Gustavo\Documents\UFSC\7ª Fase\Circuitos Eletrônicos Analógicos\LAB01\Simulação\Lab01.asc

Direct Newton iteration for .op point succeeded.
N-Period=1
Fourier components of V(vo)
DC component:8.91449

Harmonic	Frequency	 Fourier 	Normalized	 Phase  	Normalized
 Number 	  [Hz]   	Component	 Component	[degree]	Phase [deg]
    1   	1.000e+03	1.457e+00	1.000e+00	    2.34°	    0.00°
    2   	2.000e+03	1.254e-01	8.607e-02	   96.67°	   94.33°
    3   	3.000e+03	1.882e-03	1.292e-03	 -157.09°	 -159.43°
    4   	4.000e+03	1.755e-03	1.205e-03	  143.69°	  141.35°
    5   	5.000e+03	1.334e-03	9.154e-04	 -178.11°	 -180.45°
    6   	6.000e+03	9.691e-04	6.652e-04	 -138.03°	 -140.37°
    7   	7.000e+03	2.493e-04	1.711e-04	  172.83°	  170.49°
    8   	8.000e+03	7.691e-04	5.279e-04	  150.02°	  147.68°
    9   	9.000e+03	6.181e-04	4.243e-04	 -173.35°	 -175.69°
Total Harmonic Distortion: 8.609987%(8.610978%)



Date: Wed Mar 27 11:54:20 2019
Total elapsed time: 0.304 seconds.

tnom = 27
temp = 27
method = modified trap
totiter = 10043
traniter = 10038
tranpoints = 5018
accept = 5018
rejected = 0
matrix size = 17
fillins = 0
solver = Normal
Matrix Compiler1: 1.04 KB object code size  0.7/0.3/[0.3]
Matrix Compiler2: off  [0.2]/0.3/0.3

