Circuit: * D:\Usuário\Documents\GitHub\EEL7303\Laboratorios\Projeto\Simulação\TemperatureSensorPrototype\Draft1.asc

Direct Newton iteration for .op point succeeded.

Date: Sat May 11 12:18:54 2019
Total elapsed time: 0.083 seconds.

tnom = 27
temp = 27
method = modified trap
totiter = 2333
traniter = 2327
tranpoints = 1127
accept = 1114
rejected = 13
matrix size = 9
fillins = 2
solver = Normal
Matrix Compiler1: 538 bytes object code size  0.2/0.1/[0.0]
Matrix Compiler2:      56 opcodes  0.0/[0.0]/0.1

