Circuit: * D:\Usuário\Documents\GitHub\EEL7303\Laboratorios\Projeto\Simulação\TemperatureSensorPrototype\Temperature_Sensor_Prototype.asc

Warning: Multiple definitions of model "ca3046" Type: BJT
Limiting rise time of source v§start_up_lock to 1.95399e-015
Limiting fall time of source v§start_up_lock to 1.95399e-015
Direct Newton iteration failed to find .op point.  (Use ".option noopiter" to skip.)
Starting Gmin stepping
Gmin = 10
Gmin = 1.07374
Gmin = 0.115292
Gmin = 0.0123794
Gmin = 0.00132923
Gmin = 0.000142725
Gmin = 1.5325e-005
Gmin = 1.6455e-006
Gmin = 1.76685e-007
Gmin = 1.89714e-008
vernier = 0.5
vernier = 0.25
vernier = 0.125
vernier = 0.0625
vernier = 0.03125
vernier = 0.015625
vernier = 0.0078125
vernier = 0.00390625
vernier = 0.00195313
vernier = 0.000976563
Gmin = 2.37142e-008
vernier = 0.000488281
Gmin = 0
Gmin stepping failed

Starting source stepping with srcstepmethod=0
Source Step = 3.0303%
Source Step = 12.1271%
Starting source stepping with srcstepmethod=1
Source Step = 3.0303%
Source Step = 33.3333%
Source Step = 63.6364%
Source Step = 93.9394%
Source Step = 100%
Source Step = 100%
Source Step = 99.0089%
Source Step = 99.0385%
Source stepping failed

Pseudo Transient succeeded in finding the operating point at 8.27235 s.
.step temp=-25°C
.step temp=0°C
