Circuit: * D:\Usuário\Documents\GitHub\EEL7303\Laboratorios\Projeto\Bandgap1.asc

WARNING: Less than two connections to node V-.  This node is used by V3.
Direct Newton iteration failed to find .op point.  (Use ".option noopiter" to skip.)
Starting Gmin stepping
Gmin = 10
Gmin = 1.07374
Gmin = 0.115292
Gmin = 0.0123794
Gmin = 0.00132923
Gmin = 0.000142725
Gmin = 1.5325e-005
Gmin = 1.6455e-006
Gmin = 1.76685e-007
Gmin = 1.89714e-008
Gmin = 2.03704e-009
Gmin = 2.18725e-010
Gmin = 2.34854e-011
Gmin = 2.52173e-012
vernier = 0.5
vernier = 0.25
vernier = 0.125
vernier = 0.0625
Gmin = 2.40769e-012
vernier = 0.03125
vernier = 0.015625
vernier = 0.0078125
vernier = 0.00390625
Gmin = 2.38437e-012
vernier = 0.00520833
Gmin = 2.35738e-012
vernier = 0.00694444
vernier = 0.00347222
vernier = 0.00173611
Gmin = 2.33904e-012
vernier = 0.00231481
Gmin = 2.3269e-012
vernier = 0.00308642
vernier = 0.00411522
Gmin = 2.30665e-012
vernier = 0.00548696
vernier = 0.00731595
Gmin = 2.27472e-012
vernier = 0.00975459
Gmin = 2.2254e-012
vernier = 0.0130061
vernier = 0.00650306
vernier = 0.00325153
Gmin = 2.19846e-012
vernier = 0.00162576
vernier = 0.000812882
vernier = 0.000406441
Gmin = 0
Gmin stepping succeeded in finding the operating point.

.step temp=0°C
.step temp=5°C

Date: Fri Apr 26 09:48:40 2019
Total elapsed time: 24.011 seconds.

tnom = 27
temp = 5
method = modified trap
totiter = 849388
traniter = 0
tranpoints = 1
accept = 1
rejected = 0
matrix size = 81
fillins = 128
solver = Normal

