Circuit: * D:\Usuário\Documents\GitHub\EEL7303\Laboratorios\LAB07\Simulação\Lab07.asc

Direct Newton iteration for .op point succeeded.
N-Period=1
Fourier components of V(vo)
DC component:-0.0286568

Harmonic	Frequency	 Fourier 	Normalized	 Phase  	Normalized
 Number 	  [Hz]   	Component	 Component	[degree]	Phase [deg]
    1   	5.000e+04	1.341e+00	1.000e+00	   74.00°	    0.00°
    2   	1.000e+05	4.443e-03	3.313e-03	 -106.59°	 -180.59°
    3   	1.500e+05	1.451e-01	1.082e-01	   50.32°	  -23.67°
    4   	2.000e+05	4.392e-03	3.276e-03	 -120.39°	 -194.38°
    5   	2.500e+05	4.942e-02	3.686e-02	   24.87°	  -49.13°
    6   	3.000e+05	4.188e-03	3.123e-03	 -135.20°	 -209.20°
    7   	3.500e+05	2.322e-02	1.731e-02	   -2.85°	  -76.85°
    8   	4.000e+05	3.892e-03	2.902e-03	 -149.97°	 -223.97°
    9   	4.500e+05	1.328e-02	9.905e-03	  -32.69°	 -106.68°
Total Harmonic Distortion: 11.619862%(11.677543%)



Date: Wed May 15 14:51:52 2019
Total elapsed time: 0.040 seconds.

tnom = 27
temp = 27
method = modified trap
totiter = 1245
traniter = 1234
tranpoints = 429
accept = 304
rejected = 125
matrix size = 42
fillins = 40
solver = Normal
Matrix Compiler1: 3.85 KB object code size  0.6/0.3/[0.2]
Matrix Compiler2: off  [0.2]/0.4/0.2

