Circuit: * D:\Usuário\Documents\GitHub\EEL7303\Laboratorios\LAB07\Simulação\Lab07.asc

Direct Newton iteration for .op point succeeded.
N-Period=1
Fourier components of V(vo)
DC component:-2.85852

Harmonic	Frequency	 Fourier 	Normalized	 Phase  	Normalized
 Number 	  [Hz]   	Component	 Component	[degree]	Phase [deg]
    1   	5.000e+04	1.216e+00	1.000e+00	  177.26°	    0.00°
    2   	1.000e+05	6.039e-01	4.967e-01	  178.43°	    1.18°
    3   	1.500e+05	4.009e-01	3.298e-01	  179.02°	    1.76°
    4   	2.000e+05	3.006e-01	2.473e-01	  179.34°	    2.09°
    5   	2.500e+05	2.404e-01	1.978e-01	  179.44°	    2.18°
    6   	3.000e+05	2.002e-01	1.646e-01	  179.53°	    2.27°
    7   	3.500e+05	1.716e-01	1.412e-01	  179.61°	    2.36°
    8   	4.000e+05	1.502e-01	1.235e-01	  179.63°	    2.38°
    9   	4.500e+05	1.334e-01	1.098e-01	  179.68°	    2.42°
Total Harmonic Distortion: 72.809327%(79.545574%)



Date: Wed May 15 16:09:28 2019
Total elapsed time: 0.015 seconds.

tnom = 27
temp = 27
method = modified trap
totiter = 261
traniter = 250
tranpoints = 125
accept = 125
rejected = 0
matrix size = 42
fillins = 40
solver = Normal
Matrix Compiler1: 3.85 KB object code size  0.6/0.3/[0.1]
Matrix Compiler2: 4.02 KB object code size  0.2/0.4/[0.2]

