Circuit: * D:\Usuário\Documents\GitHub\EEL7303\Laboratorios\Projeto\Simulação\TemperatureSensorProduct\Temperature_Sensor_Product.asc

WARNING: Specified period is not longer than the sum of Trise, Tfall, and Ton for v§start_source.  Increasing period to 0.0012
Limiting rise time of source v§start to 1.95399e-015
Limiting fall time of source v§start to 1.95399e-015
Unknown node in .nodeset card: "comp_out" -- ignoring
WARNING: Less than two connections to node OUT0.  This node is used by A§FF10.
WARNING: Less than two connections to node OUT1.  This node is used by A§FF11.
WARNING: Less than two connections to node OUT2.  This node is used by A§FF12.
WARNING: Less than two connections to node OUT3.  This node is used by A§FF13.
WARNING: Less than two connections to node OUT4.  This node is used by A§FF14.
WARNING: Less than two connections to node OUT5.  This node is used by A§FF15.
WARNING: Less than two connections to node OUT6.  This node is used by A§FF16.
WARNING: Less than two connections to node OUT7.  This node is used by A§FF17.
WARNING: Less than two connections to node OUT8.  This node is used by A§FF18.
WARNING: Less than two connections to node OUT9.  This node is used by A§FF19.
Early termination of direct N-R iteration.
Direct Newton iteration failed to find .op point.  (Use ".option noopiter" to skip.)
Starting Gmin stepping
Gmin = 10
Gmin = 1.07374
vernier = 0.5
Gmin = 0.274568
vernier = 0.666667
vernier = 0.888888
Gmin = 0.053011
vernier = 1
Gmin = 0.006089
Gmin = 0.000653801
vernier = 0.5
vernier = 0.25
vernier = 0.125
vernier = 0.0625
Gmin = 0.000514994
vernier = 0.03125
vernier = 0.015625
vernier = 0.0078125
vernier = 0.00390625
Gmin = 0.000517469
vernier = 0.00195313
vernier = 0.000976563
vernier = 0.000488281
Gmin = 0
Gmin stepping failed

Starting source stepping with srcstepmethod=0
Source Step = 3.0303%
vernier = 0.25
Source Step = 2.28161%
Source Step = 2.3112%
Source Step = 2.34079%
Source Step = 2.37038%
Source Step = 2.39998%
Source Step = 2.42957%
vernier = 0.00146484
Source Step = 2.46804%
Source Step = 2.51243%
Source Step = 2.55682%
Source Step = 2.60121%
Source Step = 2.6456%
vernier = 0.00219727
Source Step = 2.70108%
Source Step = 2.76767%
Source Step = 2.83425%
Source Step = 2.90083%
Source Step = 2.96742%
vernier = 0.0032959
Source Step = 3.04732%
Source Step = 3.14719%
Source Step = 3.24707%
Source Step = 3.34695%
Source Step = 3.44682%
vernier = 0.00494385
Source Step = 3.56168%
Source Step = 3.71149%
Source Step = 3.86131%
Source Step = 4.01112%
Source Step = 4.16093%
vernier = 0.00741577
Source Step = 4.32573%
Source Step = 4.55045%
Source Step = 4.77517%
Source Step = 4.99989%
Source Step = 5.22461%
vernier = 0.0111237
Source Step = 5.46057%
Source Step = 5.79765%
Source Step = 6.13473%
Source Step = 6.47181%
Source Step = 6.80889%
Source Step = 7.14597%
vernier = 0.0166855
Source Step = 7.65159%
Source Step = 8.15721%
Source Step = 8.66283%
Source Step = 9.16845%
Source Step = 9.67407%
vernier = 0.0250282
Source Step = 10.4072%
Source Step = 11.1657%
Source Step = 11.9241%
Source Step = 12.6825%
Source Step = 13.4409%
vernier = 0.0375423
Source Step = 14.5028%
Source Step = 15.6404%
Source Step = 16.778%
Source Step = 17.9157%
Source Step = 19.0533%
vernier = 0.0563135
Source Step = 20.5892%
Source Step = 22.2956%
Source Step = 24.0021%
Source Step = 25.7086%
Source Step = 27.415%
vernier = 0.0844703
Source Step = 29.6335%
Source Step = 32.1932%
Source Step = 34.7529%
Source Step = 37.3126%
Source Step = 39.8723%
vernier = 0.126705
Source Step = 43.0719%
Source Step = 46.9115%
Source Step = 50.751%
Source Step = 54.5906%
Source Step = 58.4301%
vernier = 0.190058
Source Step = 63.0376%
Source Step = 68.7969%
Source Step = 74.5563%
Source Step = 80.3156%
Source Step = 86.075%
vernier = 0.285087
Source Step = 92.6982%
Source Step = 94.642%
Source Step = 95.0908%
Starting source stepping with srcstepmethod=1
Source Step = 3.0303%
vernier = 0.25
Source stepping failed

Pseudo Transient failed in finding the operating point at 490.497 ms.
Trouble finding operating point....skipping operating point for Transient analysis.
.step temp=-40°C
Changing Tseed to 1e-007
Changing Tseed to 1e-009
Changing Tseed to 1e-006
Changing Tseed to 1e-010
N-Period=1
Fourier components of V(int_out)
DC component:1.84035

Harmonic	Frequency	 Fourier 	Normalized	 Phase  	Normalized
 Number 	  [Hz]   	Component	 Component	[degree]	Phase [deg]
    1   	1.000e+03	1.951e-07	1.000e+00	    5.31°	    0.00°
    2   	2.000e+03	9.977e-08	5.112e-01	   -0.72°	   -6.04°
    3   	3.000e+03	6.505e-08	3.333e-01	    2.10°	   -3.21°
    4   	4.000e+03	4.950e-08	2.537e-01	   -1.31°	   -6.62°
    5   	5.000e+03	3.925e-08	2.011e-01	    1.47°	   -3.85°
    6   	6.000e+03	3.264e-08	1.673e-01	   -1.66°	   -6.97°
    7   	7.000e+03	2.821e-08	1.446e-01	    1.00°	   -4.31°
    8   	8.000e+03	2.419e-08	1.239e-01	   -1.71°	   -7.03°
    9   	9.000e+03	2.204e-08	1.130e-01	    0.46°	   -4.86°
Total Harmonic Distortion: 74.450381%(80.976465%)


.step temp=-20°C
N-Period=1
Fourier components of V(int_out)
DC component:1.84041

Harmonic	Frequency	 Fourier 	Normalized	 Phase  	Normalized
 Number 	  [Hz]   	Component	 Component	[degree]	Phase [deg]
    1   	1.000e+03	1.204e-07	1.000e+00	   10.89°	    0.00°
    2   	2.000e+03	5.974e-08	4.963e-01	    1.09°	   -9.80°
    3   	3.000e+03	4.019e-08	3.339e-01	    5.89°	   -5.00°
    4   	4.000e+03	3.022e-08	2.511e-01	    2.15°	   -8.75°
    5   	5.000e+03	2.476e-08	2.057e-01	    5.78°	   -5.12°
    6   	6.000e+03	2.055e-08	1.707e-01	    3.11°	   -7.78°
    7   	7.000e+03	1.833e-08	1.523e-01	    5.88°	   -5.02°
    8   	8.000e+03	1.585e-08	1.317e-01	    3.91°	   -6.99°
    9   	9.000e+03	1.484e-08	1.233e-01	    5.67°	   -5.22°
Total Harmonic Distortion: 74.029609%(86.112319%)

.step temp=0°C
N-Period=1
Fourier components of V(int_out)
DC component:1.84044

Harmonic	Frequency	 Fourier 	Normalized	 Phase  	Normalized
 Number 	  [Hz]   	Component	 Component	[degree]	Phase [deg]
    1   	1.000e+03	1.527e-07	1.000e+00	   -2.17°	    0.00°
    2   	2.000e+03	8.080e-08	5.291e-01	   -0.89°	    1.28°
    3   	3.000e+03	5.114e-08	3.349e-01	   -0.01°	    2.16°
    4   	4.000e+03	4.002e-08	2.621e-01	   -1.62°	    0.55°
    5   	5.000e+03	3.097e-08	2.028e-01	    0.60°	    2.77°
    6   	6.000e+03	2.632e-08	1.724e-01	   -2.06°	    0.11°
    7   	7.000e+03	2.235e-08	1.464e-01	    0.69°	    2.86°
    8   	8.000e+03	1.945e-08	1.274e-01	   -2.13°	    0.04°
    9   	9.000e+03	1.753e-08	1.148e-01	    0.42°	    2.59°
Total Harmonic Distortion: 76.322904%(82.987016%)

.step temp=20°C
N-Period=1
Fourier components of V(int_out)
DC component:1.84047

Harmonic	Frequency	 Fourier 	Normalized	 Phase  	Normalized
 Number 	  [Hz]   	Component	 Component	[degree]	Phase [deg]
    1   	1.000e+03	1.199e-07	1.000e+00	   10.07°	    0.00°
    2   	2.000e+03	5.937e-08	4.953e-01	   -0.61°	  -10.68°
    3   	3.000e+03	3.951e-08	3.296e-01	    3.47°	   -6.61°
    4   	4.000e+03	2.949e-08	2.461e-01	   -1.10°	  -11.17°
    5   	5.000e+03	2.377e-08	1.983e-01	    2.04°	   -8.04°
    6   	6.000e+03	1.948e-08	1.625e-01	   -1.39°	  -11.46°
    7   	7.000e+03	1.704e-08	1.421e-01	    1.21°	   -8.87°
    8   	8.000e+03	1.446e-08	1.207e-01	   -1.43°	  -11.51°
    9   	9.000e+03	1.328e-08	1.108e-01	    0.48°	   -9.59°
Total Harmonic Distortion: 72.615231%(78.994062%)

.step temp=40°C
N-Period=1
Fourier components of V(int_out)
DC component:1.8405

Harmonic	Frequency	 Fourier 	Normalized	 Phase  	Normalized
 Number 	  [Hz]   	Component	 Component	[degree]	Phase [deg]
    1   	1.000e+03	1.527e-07	1.000e+00	   -2.17°	    0.00°
    2   	2.000e+03	8.080e-08	5.291e-01	   -0.89°	    1.28°
    3   	3.000e+03	5.114e-08	3.349e-01	   -0.01°	    2.16°
    4   	4.000e+03	4.002e-08	2.621e-01	   -1.62°	    0.55°
    5   	5.000e+03	3.097e-08	2.028e-01	    0.60°	    2.77°
    6   	6.000e+03	2.632e-08	1.724e-01	   -2.06°	    0.11°
    7   	7.000e+03	2.235e-08	1.464e-01	    0.69°	    2.86°
    8   	8.000e+03	1.945e-08	1.274e-01	   -2.13°	    0.04°
    9   	9.000e+03	1.753e-08	1.148e-01	    0.42°	    2.59°
Total Harmonic Distortion: 76.322904%(82.987016%)

.step temp=60°C
N-Period=1
Fourier components of V(int_out)
DC component:1.84052

Harmonic	Frequency	 Fourier 	Normalized	 Phase  	Normalized
 Number 	  [Hz]   	Component	 Component	[degree]	Phase [deg]
    1   	1.000e+03	7.645e-08	1.000e+00	    0.06°	    0.00°
    2   	2.000e+03	4.077e-08	5.333e-01	    3.27°	    3.21°
    3   	3.000e+03	2.619e-08	3.427e-01	    6.41°	    6.34°
    4   	4.000e+03	2.074e-08	2.714e-01	    6.41°	    6.35°
    5   	5.000e+03	1.651e-08	2.160e-01	   10.44°	   10.38°
    6   	6.000e+03	1.423e-08	1.862e-01	    9.27°	    9.21°
    7   	7.000e+03	1.253e-08	1.639e-01	   13.04°	   12.98°
    8   	8.000e+03	1.110e-08	1.452e-01	   11.68°	   11.62°
    9   	9.000e+03	1.036e-08	1.356e-01	   14.42°	   14.36°
Total Harmonic Distortion: 78.936700%(91.656387%)

.step temp=80°C
N-Period=1
Fourier components of V(int_out)
DC component:1.84055

Harmonic	Frequency	 Fourier 	Normalized	 Phase  	Normalized
 Number 	  [Hz]   	Component	 Component	[degree]	Phase [deg]
    1   	1.000e+03	1.199e-07	1.000e+00	   10.07°	    0.00°
    2   	2.000e+03	5.937e-08	4.953e-01	   -0.61°	  -10.68°
    3   	3.000e+03	3.951e-08	3.296e-01	    3.47°	   -6.61°
    4   	4.000e+03	2.949e-08	2.461e-01	   -1.10°	  -11.17°
    5   	5.000e+03	2.377e-08	1.983e-01	    2.04°	   -8.04°
    6   	6.000e+03	1.948e-08	1.625e-01	   -1.39°	  -11.46°
    7   	7.000e+03	1.704e-08	1.421e-01	    1.21°	   -8.87°
    8   	8.000e+03	1.446e-08	1.207e-01	   -1.43°	  -11.51°
    9   	9.000e+03	1.328e-08	1.108e-01	    0.48°	   -9.59°
Total Harmonic Distortion: 72.615231%(78.994062%)


Date: Sat Jun 29 13:05:54 2019
Total elapsed time: 138.414 seconds.

tnom = 27
temp = 80
method = modified trap
totiter = 368317
traniter = 350859
tranpoints = 161934
accept = 122974
rejected = 39000
matrix size = 184
fillins = 735
solver = Normal
Thread vector: 52.3/18.9[6] 9.8/6.4[6] 6.6/4.6[6] 0.9/2.0[1]  2592/500
Matrix Compiler1: 89.58 KB object code size  12.4/11.1/[3.8]
Matrix Compiler2: 29.08 KB object code size  2.6/2.8/[1.3]

