Circuit: * C:\users\andre\My Documents\University\AnalogCircuits\Project\TemperatureSensorProduct\Temperature_Sensor_Product.asc

WARNING: Specified period is not longer than the sum of Trise, Tfall, and Ton for v§start_source.  Increasing period to 0.0012
Limiting rise time of source v§start to 1.95399e-015
Limiting fall time of source v§start to 1.95399e-015
Unknown node in .nodeset card: "comp_out" -- ignoring
WARNING: Less than two connections to node OUT0.  This node is used by A§FF10.
WARNING: Less than two connections to node OUT1.  This node is used by A§FF11.
WARNING: Less than two connections to node OUT2.  This node is used by A§FF12.
WARNING: Less than two connections to node OUT3.  This node is used by A§FF13.
WARNING: Less than two connections to node OUT4.  This node is used by A§FF14.
WARNING: Less than two connections to node OUT5.  This node is used by A§FF15.
WARNING: Less than two connections to node OUT6.  This node is used by A§FF16.
WARNING: Less than two connections to node OUT7.  This node is used by A§FF17.
WARNING: Less than two connections to node OUT8.  This node is used by A§FF18.
WARNING: Less than two connections to node OUT9.  This node is used by A§FF19.
Early termination of direct N-R iteration.
Direct Newton iteration failed to find .op point.  (Use ".option noopiter" to skip.)
Starting Gmin stepping
Gmin = 10
Gmin = 1.07374
vernier = 0.5
Gmin = 0.274568
vernier = 0.666667
vernier = 0.888888
Gmin = 0.053011
vernier = 1
Gmin = 0.006089
vernier = 0.5
vernier = 0.25
vernier = 0.125
vernier = 0.0625
vernier = 0.03125
Gmin = 0.00249405
vernier = 0.015625
vernier = 0.0078125
vernier = 0.00390625
vernier = 0.00195313
vernier = 0.000976563
vernier = 0.000488281
Gmin = 0
Gmin stepping failed

Starting source stepping with srcstepmethod=0
Source Step = 3.0303%
vernier = 0.25
Source Step = 2.28161%
Source Step = 2.3112%
Source Step = 2.34079%
Source Step = 2.37038%
Source Step = 2.39998%
Source Step = 2.42957%
vernier = 0.00146484
Source Step = 2.46804%
Source Step = 2.51243%
Source Step = 2.55682%
Source Step = 2.60121%
Source Step = 2.6456%
vernier = 0.00219727
Source Step = 2.70108%
Source Step = 2.76767%
Source Step = 2.83425%
Source Step = 2.90083%
Source Step = 2.96742%
vernier = 0.0032959
Source Step = 3.04732%
Source Step = 3.14719%
Source Step = 3.24707%
Source Step = 3.34695%
Source Step = 3.44682%
vernier = 0.00494385
Source Step = 3.56168%
Source Step = 3.71149%
Source Step = 3.86131%
Source Step = 4.01112%
Source Step = 4.16093%
vernier = 0.00741577
Source Step = 4.32573%
Source Step = 4.55045%
Source Step = 4.77517%
Source Step = 4.99989%
Source Step = 5.22461%
vernier = 0.0111237
Source Step = 5.46057%
Source Step = 5.79765%
Source Step = 6.13473%
Source Step = 6.47181%
Source Step = 6.80889%
Source Step = 7.14597%
vernier = 0.0166855
Source Step = 7.65159%
Source Step = 8.15721%
Source Step = 8.66283%
Source Step = 9.16845%
Source Step = 9.67407%
vernier = 0.0250282
Source Step = 10.4072%
Source Step = 11.1657%
Source Step = 11.9241%
Source Step = 12.6825%
Source Step = 13.4409%
vernier = 0.0375423
Source Step = 14.5028%
Source Step = 15.6404%
Source Step = 16.778%
Source Step = 17.9157%
Source Step = 19.0533%
vernier = 0.0563135
Source Step = 20.5892%
Source Step = 22.2956%
Source Step = 24.0021%
Source Step = 25.7086%
Source Step = 27.415%
vernier = 0.0844703
Source Step = 29.6335%
Source Step = 32.1932%
Source Step = 34.7529%
Source Step = 37.3126%
Source Step = 39.8723%
vernier = 0.126705
Source Step = 43.0719%
Source Step = 46.9115%
Source Step = 50.751%
Source Step = 54.5906%
Source Step = 58.4301%
vernier = 0.190058
Source Step = 63.0376%
Source Step = 68.7969%
Source Step = 74.5563%
Source Step = 80.3156%
Source Step = 86.075%
vernier = 0.285087
Source Step = 92.6982%
Source Step = 94.642%
Source Step = 95.7286%
Source Step = 95.7623%
Starting source stepping with srcstepmethod=1
Source Step = 3.0303%
vernier = 0.25
Source stepping failed

Pseudo Transient failed in finding the operating point at 2.27645 s.
Trouble finding operating point....skipping operating point for Transient analysis.
Changing Tseed to 1e-007
Changing Tseed to 1e-009
Changing Tseed to 1e-006
Changing Tseed to 1e-010

Date: Fri Jun 14 17:34:20 2019
Total elapsed time: 59.643 seconds.

tnom = 27
temp = 27
method = modified trap
totiter = 265459
traniter = 248564
tranpoints = 113300
accept = 85948
rejected = 27383
matrix size = 184
fillins = 629
solver = Normal
Thread vector: 99.8/52.3[4] 34.6/19.9[4] 17.4/8.8[4] 2.1/12.7[1]  2592/500
Matrix Compiler1: 71.95 KB object code size  31.4/17.6/[10.3]
Matrix Compiler2: 27.36 KB object code size  7.2/7.3/[3.4]

