Circuit: * D:\Usuário\Documents\GitHub\EEL7303\Laboratorios\Projeto\Simulação\TemperatureSensorProduct\Temperature_Sensor_Product.asc

WARNING: Specified period is not longer than the sum of Trise, Tfall, and Ton for v§start_source.  Increasing period to 0.0012
Limiting rise time of source v§start to 1.95399e-015
Limiting fall time of source v§start to 1.95399e-015
Unknown node in .nodeset card: "comp_out" -- ignoring
WARNING: Less than two connections to node OUT0.  This node is used by A§FF10.
WARNING: Less than two connections to node OUT1.  This node is used by A§FF11.
WARNING: Less than two connections to node OUT2.  This node is used by A§FF12.
WARNING: Less than two connections to node OUT3.  This node is used by A§FF13.
WARNING: Less than two connections to node OUT4.  This node is used by A§FF14.
WARNING: Less than two connections to node OUT5.  This node is used by A§FF15.
WARNING: Less than two connections to node OUT6.  This node is used by A§FF16.
WARNING: Less than two connections to node OUT7.  This node is used by A§FF17.
WARNING: Less than two connections to node OUT8.  This node is used by A§FF18.
WARNING: Less than two connections to node OUT9.  This node is used by A§FF19.
Early termination of direct N-R iteration.
Direct Newton iteration failed to find .op point.  (Use ".option noopiter" to skip.)
Starting Gmin stepping
Gmin = 10
Gmin = 1.07374
vernier = 0.5
Gmin = 0.274568
vernier = 0.666667
vernier = 0.888888
Gmin = 0.053011
vernier = 1
Gmin = 0.006089
vernier = 0.5
vernier = 0.25
Gmin = 0.0015023
vernier = 0.333333
Gmin = 0.000729236
vernier = 0.444444
vernier = 0.592592
Gmin = 0.000223014
vernier = 0.790123
vernier = 1
Gmin = 3.6711e-005
Gmin = 3.94181e-006
vernier = 0.5
Gmin = 6.61327e-007
vernier = 0.25
vernier = 0.125
vernier = 0.0625
vernier = 0.03125
vernier = 0.015625
vernier = 0.0078125
vernier = 0.00390625
vernier = 0.00195313
vernier = 0.000976563
vernier = 0.000488281
Gmin = 6.61327e-007
Gmin = 0
Gmin stepping failed

Starting source stepping with srcstepmethod=0
Source Step = 3.0303%
vernier = 0.25
Source Step = 2.28161%
Source Step = 2.3112%
Source Step = 2.34079%
Source Step = 2.37038%
Source Step = 2.39998%
Source Step = 2.42957%
vernier = 0.00146484
Source Step = 2.46804%
Source Step = 2.51243%
Source Step = 2.55682%
Source Step = 2.60121%
Source Step = 2.6456%
vernier = 0.00219727
Source Step = 2.70108%
Source Step = 2.76767%
Source Step = 2.83425%
Source Step = 2.90083%
Source Step = 2.96742%
vernier = 0.0032959
Source Step = 3.04732%
Source Step = 3.14719%
Source Step = 3.24707%
Source Step = 3.34695%
Source Step = 3.44682%
vernier = 0.00494385
Source Step = 3.56168%
Source Step = 3.71149%
Source Step = 3.86131%
Source Step = 4.01112%
Source Step = 4.16093%
vernier = 0.00741577
Source Step = 4.32573%
Source Step = 4.55045%
Source Step = 4.77517%
Source Step = 4.99989%
Source Step = 5.22461%
vernier = 0.0111237
Source Step = 5.46057%
Source Step = 5.79765%
Source Step = 6.13473%
Source Step = 6.47181%
Source Step = 6.80889%
Source Step = 7.14597%
vernier = 0.0166855
Source Step = 7.65159%
Source Step = 8.15721%
Source Step = 8.66283%
Source Step = 9.16845%
Source Step = 9.67407%
vernier = 0.0250282
Source Step = 10.4072%
Source Step = 11.1657%
Source Step = 11.9241%
Source Step = 12.6825%
Source Step = 13.4409%
vernier = 0.0375423
Source Step = 14.5028%
Source Step = 15.6404%
Source Step = 16.778%
Source Step = 17.9157%
Source Step = 19.0533%
vernier = 0.0563135
Source Step = 20.5892%
Source Step = 22.2956%
Source Step = 24.0021%
Source Step = 25.7086%
Source Step = 27.415%
vernier = 0.0844703
Source Step = 29.6335%
Source Step = 32.1932%
Source Step = 34.7529%
Source Step = 37.3126%
Source Step = 39.8723%
vernier = 0.126705
Source Step = 43.0719%
Source Step = 46.9115%
Source Step = 50.751%
Source Step = 54.5906%
Source Step = 58.4301%
vernier = 0.190058
Source Step = 63.0376%
Source Step = 68.7969%
Source Step = 74.5563%
Source Step = 80.3156%
Source Step = 86.075%
vernier = 0.285087
Source Step = 92.6982%
Source Step = 94.642%
Source Step = 95.3034%
Starting source stepping with srcstepmethod=1
Source Step = 3.0303%
vernier = 0.25
Source stepping failed

Pseudo Transient failed in finding the operating point at 513.15 ms.
Trouble finding operating point....skipping operating point for Transient analysis.
.step temp=0°C
Changing Tseed to 1e-007
Changing Tseed to 1e-009
N-Period=1
Fourier components of V(int_out)
DC component:1.84044

Harmonic	Frequency	 Fourier 	Normalized	 Phase  	Normalized
 Number 	  [Hz]   	Component	 Component	[degree]	Phase [deg]
    1   	1.000e+03	1.527e-07	1.000e+00	   -2.17°	    0.00°
    2   	2.000e+03	8.080e-08	5.291e-01	   -0.89°	    1.28°
    3   	3.000e+03	5.114e-08	3.349e-01	   -0.01°	    2.16°
    4   	4.000e+03	4.002e-08	2.621e-01	   -1.62°	    0.55°
    5   	5.000e+03	3.097e-08	2.028e-01	    0.60°	    2.77°
    6   	6.000e+03	2.632e-08	1.724e-01	   -2.06°	    0.11°
    7   	7.000e+03	2.235e-08	1.464e-01	    0.69°	    2.86°
    8   	8.000e+03	1.945e-08	1.274e-01	   -2.13°	    0.04°
    9   	9.000e+03	1.753e-08	1.148e-01	    0.42°	    2.59°
Total Harmonic Distortion: 76.322904%(82.987016%)


.step temp=20°C
N-Period=1
Fourier components of V(int_out)
DC component:1.84047

Harmonic	Frequency	 Fourier 	Normalized	 Phase  	Normalized
 Number 	  [Hz]   	Component	 Component	[degree]	Phase [deg]
    1   	1.000e+03	1.199e-07	1.000e+00	   10.07°	    0.00°
    2   	2.000e+03	5.937e-08	4.953e-01	   -0.61°	  -10.68°
    3   	3.000e+03	3.951e-08	3.296e-01	    3.47°	   -6.61°
    4   	4.000e+03	2.949e-08	2.461e-01	   -1.10°	  -11.17°
    5   	5.000e+03	2.377e-08	1.983e-01	    2.04°	   -8.04°
    6   	6.000e+03	1.948e-08	1.625e-01	   -1.39°	  -11.46°
    7   	7.000e+03	1.704e-08	1.421e-01	    1.21°	   -8.87°
    8   	8.000e+03	1.446e-08	1.207e-01	   -1.43°	  -11.51°
    9   	9.000e+03	1.328e-08	1.108e-01	    0.48°	   -9.59°
Total Harmonic Distortion: 72.615231%(78.994062%)


Date: Mon Jul 01 08:44:59 2019
Total elapsed time: 36.929 seconds.

tnom = 27
temp = 20
method = modified trap
totiter = 363138
traniter = 344931
tranpoints = 159603
accept = 121317
rejected = 38324
matrix size = 184
fillins = 674
solver = Normal
Thread vector: 42.0/16.8[6] 9.4/6.0[6] 6.7/4.2[6] 0.7/1.4[1]  2592/500
Matrix Compiler1: 77.13 KB object code size  10.3/5.4/[2.6]
Matrix Compiler2: 28.04 KB object code size  2.0/2.3/[1.2]

