Circuit: * C:\Users\gusta\Downloads\CLASS D _40V 100W.asc

V6: Removing PWL point (4.91e-006,10)
V6: Removing PWL point (1e-005,0)
V6: Removing PWL point (1.61534e-005,10)
V6: Removing PWL point (2e-005,0)
V6: Removing PWL point (2.73188e-005,10)
V6: Removing PWL point (3e-005,0)
V6: Removing PWL point (3.83327e-005,10)
V6: Removing PWL point (4e-005,0)
V6: Removing PWL point (4.91316e-005,10)
V6: Removing PWL point (5e-005,0)
V6: Removing PWL point (5.966e-005,10)
V6: Removing PWL point (6e-005,0)
V6: Removing PWL point (6.966e-005,10)
V6: Removing PWL point (7e-005,0)
V6: Removing PWL point (7.966e-005,10)
V6: Removing PWL point (8e-005,0)
V6: Removing PWL point (8.94341e-005,10)
V6: Removing PWL point (9e-005,0)
V6: Removing PWL point (9.87626e-005,10)
V6: Removing PWL point (0.0001,0)
V6: Removing PWL point (0.000107849,10)
V6: Removing PWL point (0.00011,0)
V6: Removing PWL point (0.000116751,10)
V6: Removing PWL point (0.00012,0)
V6: Removing PWL point (0.000125537,10)
V6: Removing PWL point (0.00013,0)
V6: Removing PWL point (0.000134283,10)
V6: Removing PWL point (0.00014,0)
V6: Removing PWL point (0.000143069,10)
V6: Removing PWL point (0.00015,0)
V6: Removing PWL point (0.000151971,10)
V6: Removing PWL point (0.00016,0)
V6: Removing PWL point (0.000161057,10)
V6: Removing PWL point (0.00017,0)
V6: Removing PWL point (0.000170386,10)
V6: Removing PWL point (0.00018,0)
V6: Removing PWL point (0.00018016,10)
V6: Removing PWL point (0.00019,0)
V6: Removing PWL point (0.00019016,10)
V6: Removing PWL point (0.0002,0)
V6: Removing PWL point (0.00020016,10)
V6: Removing PWL point (0.00021,0)
V6: Removing PWL point (0.000210688,10)
V6: Removing PWL point (0.00022,0)
V6: Removing PWL point (0.000221487,10)
V6: Removing PWL point (0.00023,0)
V6: Removing PWL point (0.000232501,10)
V6: Removing PWL point (0.00024,0)
V6: Removing PWL point (0.000243667,10)
V6: Removing PWL point (0.00025,0)
V6: Removing PWL point (0.00025491,10)
V6: Removing PWL point (0.00026,0)
V6: Removing PWL point (0.000266153,10)
V6: Removing PWL point (0.00027,0)
V6: Removing PWL point (0.000277319,10)
V6: Removing PWL point (0.00028,0)
V6: Removing PWL point (0.000288333,10)
V6: Removing PWL point (0.00029,0)
V6: Removing PWL point (0.000299132,10)
V6: Removing PWL point (0.0003,0)
V6: Removing PWL point (0.00030966,10)
V6: Removing PWL point (0.00031,0)
V6: Removing PWL point (0.00031966,10)
V6: Removing PWL point (0.00032,0)
V6: Removing PWL point (0.00032966,10)
V6: Removing PWL point (0.00033,0)
V6: Removing PWL point (0.000339434,10)
V6: Removing PWL point (0.00034,0)
V6: Removing PWL point (0.000348763,10)
V6: Removing PWL point (0.00035,0)
V6: Removing PWL point (0.000357849,10)
V6: Removing PWL point (0.00036,0)
V6: Removing PWL point (0.000366751,10)
V6: Removing PWL point (0.00037,0)
V6: Removing PWL point (0.000375537,10)
V6: Removing PWL point (0.00038,0)
V6: Removing PWL point (0.000384283,10)
V6: Removing PWL point (0.00039,0)
V6: Removing PWL point (0.000393069,10)
V6: Removing PWL point (0.0004,0)
V6: Removing PWL point (0.000401971,10)
V6: Removing PWL point (0.00041,0)
V6: Removing PWL point (0.000411057,10)
V6: Removing PWL point (0.00042,0)
V6: Removing PWL point (0.000420386,10)
V6: Removing PWL point (0.00043,0)
V6: Removing PWL point (0.00043016,10)
V6: Removing PWL point (0.00044,0)
V6: Removing PWL point (0.00044016,10)
V6: Removing PWL point (0.00045,0)
V6: Removing PWL point (0.00045016,10)
V6: Removing PWL point (0.00046,0)
V6: Removing PWL point (0.000460688,10)
V6: Removing PWL point (0.00047,0)
V6: Removing PWL point (0.000471487,10)
V6: Removing PWL point (0.00048,0)
V6: Removing PWL point (0.000482501,10)
V6: Removing PWL point (0.00049,0)
V6: Removing PWL point (0.000493667,10)
V6: Removing PWL point (0.0005,0)
V6: Removing PWL point (0.00050491,10)
V6: Removing PWL point (0.00051,0)
V6: Removing PWL point (0.000516153,10)
V6: Removing PWL point (0.00052,0)
V6: Removing PWL point (0.000527319,10)
V6: Removing PWL point (0.00053,0)
V6: Removing PWL point (0.000538333,10)
V6: Removing PWL point (0.00054,0)
V6: Removing PWL point (0.000549132,10)
V6: Removing PWL point (0.00055,0)
V6: Removing PWL point (0.00055966,10)
V6: Removing PWL point (0.00056,0)
V6: Removing PWL point (0.00056966,10)
V6: Removing PWL point (0.00057,0)
V6: Removing PWL point (0.00057966,10)
V6: Removing PWL point (0.00058,0)
V6: Removing PWL point (0.000589434,10)
V6: Removing PWL point (0.00059,0)
V6: Removing PWL point (0.000598763,10)
V6: Removing PWL point (0.0006,0)
V6: Removing PWL point (0.000607849,10)
V6: Removing PWL point (0.00061,0)
V6: Removing PWL point (0.000616751,10)
V6: Removing PWL point (0.00062,0)
V6: Removing PWL point (0.000625537,10)
V6: Removing PWL point (0.00063,0)
V6: Removing PWL point (0.000634283,10)
V6: Removing PWL point (0.00064,0)
V6: Removing PWL point (0.000643069,10)
V6: Removing PWL point (0.00065,0)
V6: Removing PWL point (0.000651971,10)
V6: Removing PWL point (0.00066,0)
V6: Removing PWL point (0.000661057,10)
V6: Removing PWL point (0.00067,0)
V6: Removing PWL point (0.000670386,10)
V6: Removing PWL point (0.00068,0)
V6: Removing PWL point (0.00068016,10)
V6: Removing PWL point (0.00069,0)
V6: Removing PWL point (0.00069016,10)
V6: Removing PWL point (0.0007,0)
V6: Removing PWL point (0.00070016,10)
V6: Removing PWL point (0.00071,0)
V6: Removing PWL point (0.000710688,10)
V6: Removing PWL point (0.00072,0)
V6: Removing PWL point (0.000721487,10)
V6: Removing PWL point (0.00073,0)
V6: Removing PWL point (0.000732501,10)
V6: Removing PWL point (0.00074,0)
V6: Removing PWL point (0.000743666,10)
V6: Removing PWL point (0.00075,0)
V6: Removing PWL point (0.00075491,10)
V6: Removing PWL point (0.00076,0)
V6: Removing PWL point (0.000766153,10)
V6: Removing PWL point (0.00077,0)
V6: Removing PWL point (0.000777319,10)
V6: Removing PWL point (0.00078,0)
V6: Removing PWL point (0.000788333,10)
V6: Removing PWL point (0.00079,0)
V6: Removing PWL point (0.000799132,10)
V6: Removing PWL point (0.0008,0)
V6: Removing PWL point (0.00080966,10)
V6: Removing PWL point (0.00081,0)
V6: Removing PWL point (0.00081966,10)
V6: Removing PWL point (0.00082,0)
V6: Removing PWL point (0.00082966,10)
V6: Removing PWL point (0.00083,0)
V6: Removing PWL point (0.000839434,10)
V6: Removing PWL point (0.00084,0)
V6: Removing PWL point (0.000848763,10)
V6: Removing PWL point (0.00085,0)
V6: Removing PWL point (0.000857849,10)
V6: Removing PWL point (0.00086,0)
V6: Removing PWL point (0.000866751,10)
V6: Removing PWL point (0.00087,0)
V6: Removing PWL point (0.000875537,10)
V6: Removing PWL point (0.00088,0)
V6: Removing PWL point (0.000884283,10)
V6: Removing PWL point (0.00089,0)
V6: Removing PWL point (0.000893069,10)
V6: Removing PWL point (0.0009,0)
V6: Removing PWL point (0.000901971,10)
V6: Removing PWL point (0.00091,0)
V6: Removing PWL point (0.000911057,10)
V6: Removing PWL point (0.00092,0)
V6: Removing PWL point (0.000920386,10)
V6: Removing PWL point (0.00093,0)
V6: Removing PWL point (0.00093016,10)
V6: Removing PWL point (0.00094,0)
V6: Removing PWL point (0.00094016,10)
V6: Removing PWL point (0.00095,0)
V6: Removing PWL point (0.00095016,10)
V6: Removing PWL point (0.00096,0)
V6: Removing PWL point (0.000960688,10)
V6: Removing PWL point (0.00097,0)
V6: Removing PWL point (0.000971487,10)
V6: Removing PWL point (0.00098,0)
V6: Removing PWL point (0.000982501,10)
V6: Removing PWL point (0.00099,0)
V6: Removing PWL point (0.000993666,10)
V6: Removing PWL point (0.001,0)
V6: Removing PWL point (0.00100491,10)
V6: Removing PWL point (0.00101,0)
V6: Removing PWL point (0.00101615,10)
V6: Removing PWL point (0.00102,0)
V6: Removing PWL point (0.00102732,10)
V6: Removing PWL point (0.00103,0)
V6: Removing PWL point (0.00103833,10)
V6: Removing PWL point (0.00104,0)
V6: Removing PWL point (0.00104913,10)
V6: Removing PWL point (0.00105,0)
V6: Removing PWL point (0.00105966,10)
V6: Removing PWL point (0.00106,0)
V6: Removing PWL point (0.00106966,10)
V6: Removing PWL point (0.00107,0)
V6: Removing PWL point (0.00107966,10)
V6: Removing PWL point (0.00108,0)
V6: Removing PWL point (0.00108943,10)
V6: Removing PWL point (0.00109,0)
V6: Removing PWL point (0.00109876,10)
V6: Removing PWL point (0.0011,0)
V6: Removing PWL point (0.00110785,10)
V6: Removing PWL point (0.00111,0)
V6: Removing PWL point (0.00111675,10)
V6: Removing PWL point (0.00112,0)
V6: Removing PWL point (0.00112554,10)
V6: Removing PWL point (0.00113,0)
V6: Removing PWL point (0.00113428,10)
V6: Removing PWL point (0.00114,0)
V6: Removing PWL point (0.00114307,10)
V6: Removing PWL point (0.00115,0)
V6: Removing PWL point (0.00115197,10)
V6: Removing PWL point (0.00116,0)
V6: Removing PWL point (0.00116106,10)
V6: Removing PWL point (0.00117,0)
V6: Removing PWL point (0.00117039,10)
V6: Removing PWL point (0.00118,0)
V6: Removing PWL point (0.00118016,10)
V6: Removing PWL point (0.00119,0)
V6: Removing PWL point (0.00119016,10)
V6: Removing PWL point (0.0012,0)
V6: Removing PWL point (0.00120016,10)
V6: Removing PWL point (0.00121,0)
V6: Removing PWL point (0.00121069,10)
V6: Removing PWL point (0.00122,0)
V6: Removing PWL point (0.00122149,10)
V6: Removing PWL point (0.00123,0)
V6: Removing PWL point (0.0012325,10)
V6: Removing PWL point (0.00124,0)
V6: Removing PWL point (0.00124367,10)
V6: Removing PWL point (0.00125,0)
V6: Removing PWL point (0.00125491,10)
V6: Removing PWL point (0.00126,0)
V6: Removing PWL point (0.00126615,10)
V6: Removing PWL point (0.00127,0)
V6: Removing PWL point (0.00127732,10)
V6: Removing PWL point (0.00128,0)
V6: Removing PWL point (0.00128833,10)
V6: Removing PWL point (0.00129,0)
V6: Removing PWL point (0.00129913,10)
V6: Removing PWL point (0.0013,0)
V6: Removing PWL point (0.00130966,10)
V6: Removing PWL point (0.00131,0)
V6: Removing PWL point (0.00131966,10)
V6: Removing PWL point (0.00132,0)
V6: Removing PWL point (0.00132966,10)
V6: Removing PWL point (0.00133,0)
V6: Removing PWL point (0.00133943,10)
V6: Removing PWL point (0.00134,0)
V6: Removing PWL point (0.00134876,10)
V6: Removing PWL point (0.00135,0)
V6: Removing PWL point (0.00135785,10)
V6: Removing PWL point (0.00136,0)
V6: Removing PWL point (0.00136675,10)
V6: Removing PWL point (0.00137,0)
V6: Removing PWL point (0.00137554,10)
V6: Removing PWL point (0.00138,0)
V6: Removing PWL point (0.00138428,10)
V6: Removing PWL point (0.00139,0)
V6: Removing PWL point (0.00139307,10)
V6: Removing PWL point (0.0014,0)
V6: Removing PWL point (0.00140197,10)
V6: Removing PWL point (0.00141,0)
V6: Removing PWL point (0.00141106,10)
V6: Removing PWL point (0.00142,0)
V6: Removing PWL point (0.00142039,10)
V6: Removing PWL point (0.00143,0)
V6: Removing PWL point (0.00143016,10)
V6: Removing PWL point (0.00144,0)
V6: Removing PWL point (0.00144016,10)
V6: Removing PWL point (0.00145,0)
V6: Removing PWL point (0.00145016,10)
V6: Removing PWL point (0.00146,0)
V6: Removing PWL point (0.00146069,10)
V6: Removing PWL point (0.00147,0)
V6: Removing PWL point (0.00147149,10)
V6: Removing PWL point (0.00148,0)
V6: Removing PWL point (0.0014825,10)
V6: Removing PWL point (0.00149,0)
V6: Removing PWL point (0.00149367,10)
V6: Removing PWL point (0.0015,0)
V6: Removing PWL point (0.00150491,10)
V6: Removing PWL point (0.00151,0)
V6: Removing PWL point (0.00151615,10)
V6: Removing PWL point (0.00152,0)
V6: Removing PWL point (0.00152732,10)
V6: Removing PWL point (0.00153,0)
V6: Removing PWL point (0.00153833,10)
V6: Removing PWL point (0.00154,0)
V6: Removing PWL point (0.00154913,10)
V6: Removing PWL point (0.00155,0)
V6: Removing PWL point (0.00155966,10)
V6: Removing PWL point (0.00156,0)
V6: Removing PWL point (0.00156966,10)
V6: Removing PWL point (0.00157,0)
V6: Removing PWL point (0.00157966,10)
V6: Removing PWL point (0.00158,0)
V6: Removing PWL point (0.00158943,10)
V6: Removing PWL point (0.00159,0)
V6: Removing PWL point (0.00159876,10)
V6: Removing PWL point (0.0016,0)
V6: Removing PWL point (0.00160785,10)
V6: Removing PWL point (0.00161,0)
V6: Removing PWL point (0.00161675,10)
V6: Removing PWL point (0.00162,0)
V6: Removing PWL point (0.00162554,10)
V6: Removing PWL point (0.00163,0)
V6: Removing PWL point (0.00163428,10)
V6: Removing PWL point (0.00164,0)
V6: Removing PWL point (0.00164307,10)
V6: Removing PWL point (0.00165,0)
V6: Removing PWL point (0.00165197,10)
V6: Removing PWL point (0.00166,0)
V6: Removing PWL point (0.00166106,10)
V6: Removing PWL point (0.00167,0)
V6: Removing PWL point (0.00167039,10)
V6: Removing PWL point (0.00168,0)
V6: Removing PWL point (0.00168016,10)
V6: Removing PWL point (0.00169,0)
V6: Removing PWL point (0.00169016,10)
V6: Removing PWL point (0.0017,0)
V6: Removing PWL point (0.00170016,10)
V6: Removing PWL point (0.00171,0)
V6: Removing PWL point (0.00171069,10)
V6: Removing PWL point (0.00172,0)
V6: Removing PWL point (0.00172149,10)
V6: Removing PWL point (0.00173,0)
V6: Removing PWL point (0.0017325,10)
V6: Removing PWL point (0.00174,0)
V6: Removing PWL point (0.00174367,10)
V6: Removing PWL point (0.00175,0)
V6: Removing PWL point (0.00175491,10)
V6: Removing PWL point (0.00176,0)
V6: Removing PWL point (0.00176615,10)
V6: Removing PWL point (0.00177,0)
V6: Removing PWL point (0.00177732,10)
V6: Removing PWL point (0.00178,0)
V6: Removing PWL point (0.00178833,10)
V6: Removing PWL point (0.00179,0)
V6: Removing PWL point (0.00179913,10)
V6: Removing PWL point (0.0018,0)
V6: Removing PWL point (0.00180966,10)
V6: Removing PWL point (0.00181,0)
V6: Removing PWL point (0.00181966,10)
V6: Removing PWL point (0.00182,0)
V6: Removing PWL point (0.00182966,10)
V6: Removing PWL point (0.00183,0)
V6: Removing PWL point (0.00183943,10)
V6: Removing PWL point (0.00184,0)
V6: Removing PWL point (0.00184876,10)
V6: Removing PWL point (0.00185,0)
V6: Removing PWL point (0.00185785,10)
V6: Removing PWL point (0.00186,0)
V6: Removing PWL point (0.00186675,10)
V6: Removing PWL point (0.00187,0)
V6: Removing PWL point (0.00187554,10)
V6: Removing PWL point (0.00188,0)
V6: Removing PWL point (0.00188428,10)
V6: Removing PWL point (0.00189,0)
V6: Removing PWL point (0.00189307,10)
V6: Removing PWL point (0.0019,0)
V6: Removing PWL point (0.00190197,10)
V6: Removing PWL point (0.00191,0)
V6: Removing PWL point (0.00191106,10)
V6: Removing PWL point (0.00192,0)
V6: Removing PWL point (0.00192039,10)
V6: Removing PWL point (0.00193,0)
V6: Removing PWL point (0.00193016,10)
V6: Removing PWL point (0.00194,0)
V6: Removing PWL point (0.00194016,10)
V6: Removing PWL point (0.00195,0)
V6: Removing PWL point (0.00195016,10)
V6: Removing PWL point (0.00196,0)
V6: Removing PWL point (0.00196069,10)
V6: Removing PWL point (0.00197,0)
V6: Removing PWL point (0.00197149,10)
V6: Removing PWL point (0.00198,0)
V6: Removing PWL point (0.0019825,10)
V6: Removing PWL point (0.00199,0)
V6: Removing PWL point (0.00199367,10)
V6: Removing PWL point (0.002,0)
V6: Removing PWL point (0.00200491,10)
V6: Removing PWL point (0.00201,0)
V6: Removing PWL point (0.00201615,10)
V6: Removing PWL point (0.00202,0)
V6: Removing PWL point (0.00202732,10)
V6: Removing PWL point (0.00203,0)
V6: Removing PWL point (0.00203833,10)
V6: Removing PWL point (0.00204,0)
V6: Removing PWL point (0.00204913,10)
V6: Removing PWL point (0.00205,0)
V6: Removing PWL point (0.00205966,10)
V6: Removing PWL point (0.00206,0)
V6: Removing PWL point (0.00206966,10)
V6: Removing PWL point (0.00207,0)
V6: Removing PWL point (0.00207966,10)
V6: Removing PWL point (0.00208,0)
V6: Removing PWL point (0.00208943,10)
V6: Removing PWL point (0.00209,0)
V6: Removing PWL point (0.00209876,10)
V6: Removing PWL point (0.0021,0)
V6: Removing PWL point (0.00210785,10)
V6: Removing PWL point (0.00211,0)
V6: Removing PWL point (0.00211675,10)
V6: Removing PWL point (0.00212,0)
V6: Removing PWL point (0.00212554,10)
V6: Removing PWL point (0.00213,0)
V6: Removing PWL point (0.00213428,10)
V6: Removing PWL point (0.00214,0)
V6: Removing PWL point (0.00214307,10)
V6: Removing PWL point (0.00215,0)
V6: Removing PWL point (0.00215197,10)
V6: Removing PWL point (0.00216,0)
V6: Removing PWL point (0.00216106,10)
V6: Removing PWL point (0.00217,0)
V6: Removing PWL point (0.00217039,10)
V6: Removing PWL point (0.00218,0)
V6: Removing PWL point (0.00218016,10)
V6: Removing PWL point (0.00219,0)
V6: Removing PWL point (0.00219016,10)
V6: Removing PWL point (0.0022,0)
V6: Removing PWL point (0.00220016,10)
V6: Removing PWL point (0.00221,0)
V6: Removing PWL point (0.00221069,10)
V6: Removing PWL point (0.00222,0)
V6: Removing PWL point (0.00222149,10)
V6: Removing PWL point (0.00223,0)
V6: Removing PWL point (0.0022325,10)
V6: Removing PWL point (0.00224,0)
V6: Removing PWL point (0.00224367,10)
V6: Removing PWL point (0.00225,0)
V6: Removing PWL point (0.00225491,10)
V6: Removing PWL point (0.00226,0)
V6: Removing PWL point (0.00226615,10)
V6: Removing PWL point (0.00227,0)
V6: Removing PWL point (0.00227732,10)
V6: Removing PWL point (0.00228,0)
V6: Removing PWL point (0.00228833,10)
V6: Removing PWL point (0.00229,0)
V6: Removing PWL point (0.00229913,10)
V6: Removing PWL point (0.0023,0)
V6: Removing PWL point (0.00230966,10)
V6: Removing PWL point (0.00231,0)
V6: Removing PWL point (0.00231966,10)
V6: Removing PWL point (0.00232,0)
V6: Removing PWL point (0.00232966,10)
V6: Removing PWL point (0.00233,0)
V6: Removing PWL point (0.00233943,10)
V6: Removing PWL point (0.00234,0)
V6: Removing PWL point (0.00234876,10)
V6: Removing PWL point (0.00235,0)
V6: Removing PWL point (0.00235785,10)
V6: Removing PWL point (0.00236,0)
V6: Removing PWL point (0.00236675,10)
V6: Removing PWL point (0.00237,0)
V6: Removing PWL point (0.00237554,10)
V6: Removing PWL point (0.00238,0)
V6: Removing PWL point (0.00238428,10)
V6: Removing PWL point (0.00239,0)
V6: Removing PWL point (0.00239307,10)
V6: Removing PWL point (0.0024,0)
V6: Removing PWL point (0.00240197,10)
V6: Removing PWL point (0.00241,0)
V6: Removing PWL point (0.00241106,10)
V6: Removing PWL point (0.00242,0)
V6: Removing PWL point (0.00242039,10)
V6: Removing PWL point (0.00243,0)
V6: Removing PWL point (0.00243016,10)
V6: Removing PWL point (0.00244,0)
V6: Removing PWL point (0.00244016,10)
V6: Removing PWL point (0.00245,0)
V6: Removing PWL point (0.00245016,10)
V6: Removing PWL point (0.00246,0)
V6: Removing PWL point (0.00246069,10)
V6: Removing PWL point (0.00247,0)
V6: Removing PWL point (0.00247149,10)
V6: Removing PWL point (0.00248,0)
V6: Removing PWL point (0.0024825,10)
V6: Removing PWL point (0.00249,0)
V6: Removing PWL point (0.00249367,10)
V6: Removing PWL point (0.0025,0)
V6: Removing PWL point (0.00250491,10)
V6: Removing PWL point (0.00251,0)
V6: Removing PWL point (0.00251615,10)
V6: Removing PWL point (0.00252,0)
V6: Removing PWL point (0.00252732,10)
V6: Removing PWL point (0.00253,0)
V6: Removing PWL point (0.00253833,10)
V6: Removing PWL point (0.00254,0)
V6: Removing PWL point (0.00254913,10)
V6: Removing PWL point (0.00255,0)
V6: Removing PWL point (0.00255966,10)
V6: Removing PWL point (0.00256,0)
V6: Removing PWL point (0.00256966,10)
V6: Removing PWL point (0.00257,0)
V6: Removing PWL point (0.00257966,10)
V6: Removing PWL point (0.00258,0)
V6: Removing PWL point (0.00258943,10)
V6: Removing PWL point (0.00259,0)
V6: Removing PWL point (0.00259876,10)
V6: Removing PWL point (0.0026,0)
V6: Removing PWL point (0.00260785,10)
V6: Removing PWL point (0.00261,0)
V6: Removing PWL point (0.00261675,10)
V6: Removing PWL point (0.00262,0)
V6: Removing PWL point (0.00262554,10)
V6: Removing PWL point (0.00263,0)
V6: Removing PWL point (0.00263428,10)
V6: Removing PWL point (0.00264,0)
V6: Removing PWL point (0.00264307,10)
V6: Removing PWL point (0.00265,0)
V6: Removing PWL point (0.00265197,10)
V6: Removing PWL point (0.00266,0)
V6: Removing PWL point (0.00266106,10)
V6: Removing PWL point (0.00267,0)
V6: Removing PWL point (0.00267039,10)
V6: Removing PWL point (0.00268,0)
V6: Removing PWL point (0.00268016,10)
V6: Removing PWL point (0.00269,0)
V6: Removing PWL point (0.00269016,10)
V6: Removing PWL point (0.0027,0)
V6: Removing PWL point (0.00270016,10)
V6: Removing PWL point (0.00271,0)
V6: Removing PWL point (0.00271069,10)
V6: Removing PWL point (0.00272,0)
V6: Removing PWL point (0.00272149,10)
V6: Removing PWL point (0.00273,0)
V6: Removing PWL point (0.0027325,10)
V6: Removing PWL point (0.00274,0)
V6: Removing PWL point (0.00274367,10)
V6: Removing PWL point (0.00275,0)
V6: Removing PWL point (0.00275491,10)
V6: Removing PWL point (0.00276,0)
V6: Removing PWL point (0.00276615,10)
V6: Removing PWL point (0.00277,0)
V6: Removing PWL point (0.00277732,10)
V6: Removing PWL point (0.00278,0)
V6: Removing PWL point (0.00278833,10)
V6: Removing PWL point (0.00279,0)
V6: Removing PWL point (0.00279913,10)
V6: Removing PWL point (0.0028,0)
V6: Removing PWL point (0.00280966,10)
V6: Removing PWL point (0.00281,0)
V6: Removing PWL point (0.00281966,10)
V6: Removing PWL point (0.00282,0)
V6: Removing PWL point (0.00282966,10)
V6: Removing PWL point (0.00283,0)
V6: Removing PWL point (0.00283943,10)
V6: Removing PWL point (0.00284,0)
V6: Removing PWL point (0.00284876,10)
V6: Removing PWL point (0.00285,0)
V6: Removing PWL point (0.00285785,10)
V6: Removing PWL point (0.00286,0)
V6: Removing PWL point (0.00286675,10)
V6: Removing PWL point (0.00287,0)
V6: Removing PWL point (0.00287554,10)
V6: Removing PWL point (0.00288,0)
V6: Removing PWL point (0.00288428,10)
V6: Removing PWL point (0.00289,0)
V6: Removing PWL point (0.00289307,10)
V6: Removing PWL point (0.0029,0)
V6: Removing PWL point (0.00290197,10)
V6: Removing PWL point (0.00291,0)
V6: Removing PWL point (0.00291106,10)
V6: Removing PWL point (0.00292,0)
V6: Removing PWL point (0.00292039,10)
V6: Removing PWL point (0.00293,0)
V6: Removing PWL point (0.00293016,10)
V6: Removing PWL point (0.00294,0)
V6: Removing PWL point (0.00294016,10)
V6: Removing PWL point (0.00295,0)
V6: Removing PWL point (0.00295016,10)
V6: Removing PWL point (0.00296,0)
V6: Removing PWL point (0.00296069,10)
V6: Removing PWL point (0.00297,0)
V6: Removing PWL point (0.00297149,10)
V6: Removing PWL point (0.00298,0)
V6: Removing PWL point (0.0029825,10)
V6: Removing PWL point (0.00299,0)
V6: Removing PWL point (0.00299367,10)
V6: Removing PWL point (0.003,0)
V6: Removing PWL point (0.00300491,10)
V6: Removing PWL point (0.00301,0)
V6: Removing PWL point (0.00301615,10)
V6: Removing PWL point (0.00302,0)
V6: Removing PWL point (0.00302732,10)
V6: Removing PWL point (0.00303,0)
V6: Removing PWL point (0.00303833,10)
V6: Removing PWL point (0.00304,0)
V6: Removing PWL point (0.00304913,10)
V6: Removing PWL point (0.00305,0)
V6: Removing PWL point (0.00305966,10)
V6: Removing PWL point (0.00306,0)
V6: Removing PWL point (0.00306966,10)
V6: Removing PWL point (0.00307,0)
V6: Removing PWL point (0.00307966,10)
V6: Removing PWL point (0.00308,0)
V6: Removing PWL point (0.00308943,10)
V6: Removing PWL point (0.00309,0)
V6: Removing PWL point (0.00309876,10)
V6: Removing PWL point (0.0031,0)
V6: Removing PWL point (0.00310785,10)
V6: Removing PWL point (0.00311,0)
V6: Removing PWL point (0.00311675,10)
V6: Removing PWL point (0.00312,0)
V6: Removing PWL point (0.00312554,10)
V6: Removing PWL point (0.00313,0)
V6: Removing PWL point (0.00313428,10)
V6: Removing PWL point (0.00314,0)
V6: Removing PWL point (0.00314307,10)
V6: Removing PWL point (0.00315,0)
V6: Removing PWL point (0.00315197,10)
V6: Removing PWL point (0.00316,0)
V6: Removing PWL point (0.00316106,10)
V6: Removing PWL point (0.00317,0)
V6: Removing PWL point (0.00317039,10)
V6: Removing PWL point (0.00318,0)
V6: Removing PWL point (0.00318016,10)
V6: Removing PWL point (0.00319,0)
V6: Removing PWL point (0.00319016,10)
V6: Removing PWL point (0.0032,0)
V6: Removing PWL point (0.00320016,10)
V6: Removing PWL point (0.00321,0)
V6: Removing PWL point (0.00321069,10)
V6: Removing PWL point (0.00322,0)
V6: Removing PWL point (0.00322149,10)
V6: Removing PWL point (0.00323,0)
V6: Removing PWL point (0.0032325,10)
V6: Removing PWL point (0.00324,0)
V6: Removing PWL point (0.00324367,10)
V6: Removing PWL point (0.00325,0)
V6: Removing PWL point (0.00325491,10)
V6: Removing PWL point (0.00326,0)
V6: Removing PWL point (0.00326615,10)
V6: Removing PWL point (0.00327,0)
V6: Removing PWL point (0.00327732,10)
V6: Removing PWL point (0.00328,0)
V6: Removing PWL point (0.00328833,10)
V6: Removing PWL point (0.00329,0)
V6: Removing PWL point (0.00329913,10)
V6: Removing PWL point (0.0033,0)
V6: Removing PWL point (0.00330966,10)
V6: Removing PWL point (0.00331,0)
V6: Removing PWL point (0.00331966,10)
V6: Removing PWL point (0.00332,0)
V6: Removing PWL point (0.00332966,10)
V6: Removing PWL point (0.00333,0)
V6: Removing PWL point (0.00333943,10)
V6: Removing PWL point (0.00334,0)
V6: Removing PWL point (0.00334876,10)
V6: Removing PWL point (0.00335,0)
V6: Removing PWL point (0.00335785,10)
V6: Removing PWL point (0.00336,0)
V6: Removing PWL point (0.00336675,10)
V6: Removing PWL point (0.00337,0)
V6: Removing PWL point (0.00337554,10)
V6: Removing PWL point (0.00338,0)
V6: Removing PWL point (0.00338428,10)
V6: Removing PWL point (0.00339,0)
V6: Removing PWL point (0.00339307,10)
V6: Removing PWL point (0.0034,0)
V6: Removing PWL point (0.00340197,10)
V6: Removing PWL point (0.00341,0)
V6: Removing PWL point (0.00341106,10)
V6: Removing PWL point (0.00342,0)
V6: Removing PWL point (0.00342039,10)
V6: Removing PWL point (0.00343,0)
V6: Removing PWL point (0.00343016,10)
V6: Removing PWL point (0.00344,0)
V6: Removing PWL point (0.00344016,10)
V6: Removing PWL point (0.00345,0)
V6: Removing PWL point (0.00345016,10)
V6: Removing PWL point (0.00346,0)
V6: Removing PWL point (0.00346069,10)
V6: Removing PWL point (0.00347,0)
V6: Removing PWL point (0.00347149,10)
V6: Removing PWL point (0.00348,0)
V6: Removing PWL point (0.0034825,10)
V6: Removing PWL point (0.00349,0)
V6: Removing PWL point (0.00349367,10)
V6: Removing PWL point (0.0035,0)
V6: Removing PWL point (0.00350491,10)
V6: Removing PWL point (0.00351,0)
V6: Removing PWL point (0.00351615,10)
V6: Removing PWL point (0.00352,0)
V6: Removing PWL point (0.00352732,10)
V6: Removing PWL point (0.00353,0)
V6: Removing PWL point (0.00353833,10)
V6: Removing PWL point (0.00354,0)
V6: Removing PWL point (0.00354913,10)
V6: Removing PWL point (0.00355,0)
V6: Removing PWL point (0.00355966,10)
V6: Removing PWL point (0.00356,0)
V6: Removing PWL point (0.00356966,10)
V6: Removing PWL point (0.00357,0)
V6: Removing PWL point (0.00357966,10)
V6: Removing PWL point (0.00358,0)
V6: Removing PWL point (0.00358943,10)
V6: Removing PWL point (0.00359,0)
V6: Removing PWL point (0.00359876,10)
V6: Removing PWL point (0.0036,0)
V6: Removing PWL point (0.00360785,10)
V6: Removing PWL point (0.00361,0)
V6: Removing PWL point (0.00361675,10)
V6: Removing PWL point (0.00362,0)
V6: Removing PWL point (0.00362554,10)
V6: Removing PWL point (0.00363,0)
V6: Removing PWL point (0.00363428,10)
V6: Removing PWL point (0.00364,0)
V6: Removing PWL point (0.00364307,10)
V6: Removing PWL point (0.00365,0)
V6: Removing PWL point (0.00365197,10)
V6: Removing PWL point (0.00366,0)
V6: Removing PWL point (0.00366106,10)
V6: Removing PWL point (0.00367,0)
V6: Removing PWL point (0.00367039,10)
V6: Removing PWL point (0.00368,0)
V6: Removing PWL point (0.00368016,10)
V6: Removing PWL point (0.00369,0)
V6: Removing PWL point (0.00369016,10)
V6: Removing PWL point (0.0037,0)
V6: Removing PWL point (0.00370016,10)
V6: Removing PWL point (0.00371,0)
V6: Removing PWL point (0.00371069,10)
V6: Removing PWL point (0.00372,0)
V6: Removing PWL point (0.00372149,10)
V6: Removing PWL point (0.00373,0)
V6: Removing PWL point (0.0037325,10)
V6: Removing PWL point (0.00374,0)
V6: Removing PWL point (0.00374367,10)
V6: Removing PWL point (0.00375,0)
V6: Removing PWL point (0.00375491,10)
V6: Removing PWL point (0.00376,0)
V6: Removing PWL point (0.00376615,10)
V6: Removing PWL point (0.00377,0)
V6: Removing PWL point (0.00377732,10)
V6: Removing PWL point (0.00378,0)
V6: Removing PWL point (0.00378833,10)
V6: Removing PWL point (0.00379,0)
V6: Removing PWL point (0.00379913,10)
V6: Removing PWL point (0.0038,0)
V6: Removing PWL point (0.00380966,10)
V6: Removing PWL point (0.00381,0)
V6: Removing PWL point (0.00381966,10)
V6: Removing PWL point (0.00382,0)
V6: Removing PWL point (0.00382966,10)
V6: Removing PWL point (0.00383,0)
V6: Removing PWL point (0.00383943,10)
V6: Removing PWL point (0.00384,0)
V6: Removing PWL point (0.00384876,10)
V6: Removing PWL point (0.00385,0)
V6: Removing PWL point (0.00385785,10)
V6: Removing PWL point (0.00386,0)
V6: Removing PWL point (0.00386675,10)
V6: Removing PWL point (0.00387,0)
V6: Removing PWL point (0.00387554,10)
V6: Removing PWL point (0.00388,0)
V6: Removing PWL point (0.00388428,10)
V6: Removing PWL point (0.00389,0)
V6: Removing PWL point (0.00389307,10)
V6: Removing PWL point (0.0039,0)
V6: Removing PWL point (0.00390197,10)
V6: Removing PWL point (0.00391,0)
V6: Removing PWL point (0.00391106,10)
V6: Removing PWL point (0.00392,0)
V6: Removing PWL point (0.00392039,10)
V6: Removing PWL point (0.00393,0)
V6: Removing PWL point (0.00393016,10)
V6: Removing PWL point (0.00394,0)
V6: Removing PWL point (0.00394016,10)
V6: Removing PWL point (0.00395,0)
V6: Removing PWL point (0.00395016,10)
V6: Removing PWL point (0.00396,0)
V6: Removing PWL point (0.00396069,10)
V6: Removing PWL point (0.00397,0)
V6: Removing PWL point (0.00397149,10)
V6: Removing PWL point (0.00398,0)
V6: Removing PWL point (0.0039825,10)
V6: Removing PWL point (0.00399,0)
V6: Removing PWL point (0.00399367,10)
V6: Removing PWL point (0.004,0)
V6: Removing PWL point (0.00400491,10)
V6: Removing PWL point (0.00401,0)
V6: Removing PWL point (0.00401615,10)
V6: Removing PWL point (0.00402,0)
V6: Removing PWL point (0.00402732,10)
V6: Removing PWL point (0.00403,0)
V6: Removing PWL point (0.00403833,10)
V6: Removing PWL point (0.00404,0)
V6: Removing PWL point (0.00404913,10)
V6: Removing PWL point (0.00405,0)
V6: Removing PWL point (0.00405966,10)
V6: Removing PWL point (0.00406,0)
V6: Removing PWL point (0.00406966,10)
V6: Removing PWL point (0.00407,0)
V6: Removing PWL point (0.00407966,10)
V6: Removing PWL point (0.00408,0)
V6: Removing PWL point (0.00408943,10)
V6: Removing PWL point (0.00409,0)
V6: Removing PWL point (0.00409876,10)
V6: Removing PWL point (0.0041,0)
V6: Removing PWL point (0.00410785,10)
V6: Removing PWL point (0.00411,0)
V6: Removing PWL point (0.00411675,10)
V6: Removing PWL point (0.00412,0)
V6: Removing PWL point (0.00412554,10)
V6: Removing PWL point (0.00413,0)
V6: Removing PWL point (0.00413428,10)
V6: Removing PWL point (0.00414,0)
V6: Removing PWL point (0.00414307,10)
V6: Removing PWL point (0.00415,0)
V6: Removing PWL point (0.00415197,10)
V6: Removing PWL point (0.00416,0)
V6: Removing PWL point (0.00416106,10)
V6: Removing PWL point (0.00417,0)
V6: Removing PWL point (0.00417039,10)
V6: Removing PWL point (0.00418,0)
V6: Removing PWL point (0.00418016,10)
V6: Removing PWL point (0.00419,0)
V6: Removing PWL point (0.00419016,10)
V6: Removing PWL point (0.0042,0)
V6: Removing PWL point (0.00420016,10)
V6: Removing PWL point (0.00421,0)
V6: Removing PWL point (0.00421069,10)
V6: Removing PWL point (0.00422,0)
V6: Removing PWL point (0.00422149,10)
V6: Removing PWL point (0.00423,0)
V6: Removing PWL point (0.0042325,10)
V6: Removing PWL point (0.00424,0)
V6: Removing PWL point (0.00424367,10)
V6: Removing PWL point (0.00425,0)
V6: Removing PWL point (0.00425491,10)
V6: Removing PWL point (0.00426,0)
V6: Removing PWL point (0.00426615,10)
V6: Removing PWL point (0.00427,0)
V6: Removing PWL point (0.00427732,10)
V6: Removing PWL point (0.00428,0)
V6: Removing PWL point (0.00428833,10)
V6: Removing PWL point (0.00429,0)
V6: Removing PWL point (0.00429913,10)
V6: Removing PWL point (0.0043,0)
V6: Removing PWL point (0.00430966,10)
V6: Removing PWL point (0.00431,0)
V6: Removing PWL point (0.00431966,10)
V6: Removing PWL point (0.00432,0)
V6: Removing PWL point (0.00432966,10)
V6: Removing PWL point (0.00433,0)
V6: Removing PWL point (0.00433943,10)
V6: Removing PWL point (0.00434,0)
V6: Removing PWL point (0.00434876,10)
V6: Removing PWL point (0.00435,0)
V6: Removing PWL point (0.00435785,10)
V6: Removing PWL point (0.00436,0)
V6: Removing PWL point (0.00436675,10)
V6: Removing PWL point (0.00437,0)
V6: Removing PWL point (0.00437554,10)
V6: Removing PWL point (0.00438,0)
V6: Removing PWL point (0.00438428,10)
V6: Removing PWL point (0.00439,0)
V6: Removing PWL point (0.00439307,10)
V6: Removing PWL point (0.0044,0)
V6: Removing PWL point (0.00440197,10)
V6: Removing PWL point (0.00441,0)
V6: Removing PWL point (0.00441106,10)
V6: Removing PWL point (0.00442,0)
V6: Removing PWL point (0.00442039,10)
V6: Removing PWL point (0.00443,0)
V6: Removing PWL point (0.00443016,10)
V6: Removing PWL point (0.00444,0)
V6: Removing PWL point (0.00444016,10)
V6: Removing PWL point (0.00445,0)
V6: Removing PWL point (0.00445016,10)
V6: Removing PWL point (0.00446,0)
V6: Removing PWL point (0.00446069,10)
V6: Removing PWL point (0.00447,0)
V6: Removing PWL point (0.00447149,10)
V6: Removing PWL point (0.00448,0)
V6: Removing PWL point (0.0044825,10)
V6: Removing PWL point (0.00449,0)
V6: Removing PWL point (0.00449367,10)
V6: Removing PWL point (0.0045,0)
V6: Removing PWL point (0.00450491,10)
V6: Removing PWL point (0.00451,0)
V6: Removing PWL point (0.00451615,10)
V6: Removing PWL point (0.00452,0)
V6: Removing PWL point (0.00452732,10)
V6: Removing PWL point (0.00453,0)
V6: Removing PWL point (0.00453833,10)
V6: Removing PWL point (0.00454,0)
V6: Removing PWL point (0.00454913,10)
V6: Removing PWL point (0.00455,0)
V6: Removing PWL point (0.00455966,10)
V6: Removing PWL point (0.00456,0)
V6: Removing PWL point (0.00456966,10)
V6: Removing PWL point (0.00457,0)
V6: Removing PWL point (0.00457966,10)
V6: Removing PWL point (0.00458,0)
V6: Removing PWL point (0.00458943,10)
V6: Removing PWL point (0.00459,0)
V6: Removing PWL point (0.00459876,10)
V6: Removing PWL point (0.0046,0)
V6: Removing PWL point (0.00460785,10)
V6: Removing PWL point (0.00461,0)
V6: Removing PWL point (0.00461675,10)
V6: Removing PWL point (0.00462,0)
V6: Removing PWL point (0.00462554,10)
V6: Removing PWL point (0.00463,0)
V6: Removing PWL point (0.00463428,10)
V6: Removing PWL point (0.00464,0)
V6: Removing PWL point (0.00464307,10)
V6: Removing PWL point (0.00465,0)
V6: Removing PWL point (0.00465197,10)
V6: Removing PWL point (0.00466,0)
V6: Removing PWL point (0.00466106,10)
V6: Removing PWL point (0.00467,0)
V6: Removing PWL point (0.00467039,10)
V6: Removing PWL point (0.00468,0)
V6: Removing PWL point (0.00468016,10)
V6: Removing PWL point (0.00469,0)
V6: Removing PWL point (0.00469016,10)
V6: Removing PWL point (0.0047,0)
V6: Removing PWL point (0.00470016,10)
V6: Removing PWL point (0.00471,0)
V6: Removing PWL point (0.00471069,10)
V6: Removing PWL point (0.00472,0)
V6: Removing PWL point (0.00472149,10)
V6: Removing PWL point (0.00473,0)
V6: Removing PWL point (0.0047325,10)
V6: Removing PWL point (0.00474,0)
V6: Removing PWL point (0.00474367,10)
V6: Removing PWL point (0.00475,0)
V6: Removing PWL point (0.00475491,10)
V6: Removing PWL point (0.00476,0)
V6: Removing PWL point (0.00476615,10)
V6: Removing PWL point (0.00477,0)
V6: Removing PWL point (0.00477732,10)
V6: Removing PWL point (0.00478,0)
V6: Removing PWL point (0.00478833,10)
V6: Removing PWL point (0.00479,0)
V6: Removing PWL point (0.00479913,10)
V6: Removing PWL point (0.0048,0)
V6: Removing PWL point (0.00480966,10)
V6: Removing PWL point (0.00481,0)
V6: Removing PWL point (0.00481966,10)
V6: Removing PWL point (0.00482,0)
V6: Removing PWL point (0.00482966,10)
V6: Removing PWL point (0.00483,0)
V6: Removing PWL point (0.00483943,10)
V6: Removing PWL point (0.00484,0)
V6: Removing PWL point (0.00484876,10)
V6: Removing PWL point (0.00485,0)
V6: Removing PWL point (0.00485785,10)
V6: Removing PWL point (0.00486,0)
V6: Removing PWL point (0.00486675,10)
V6: Removing PWL point (0.00487,0)
V6: Removing PWL point (0.00487554,10)
V6: Removing PWL point (0.00488,0)
V6: Removing PWL point (0.00488428,10)
V6: Removing PWL point (0.00489,0)
V6: Removing PWL point (0.00489307,10)
V6: Removing PWL point (0.0049,0)
V6: Removing PWL point (0.00490197,10)
V6: Removing PWL point (0.00491,0)
V6: Removing PWL point (0.00491106,10)
V6: Removing PWL point (0.00492,0)
V6: Removing PWL point (0.00492039,10)
V6: Removing PWL point (0.00493,0)
V6: Removing PWL point (0.00493016,10)
V6: Removing PWL point (0.00494,0)
V6: Removing PWL point (0.00494016,10)
V6: Removing PWL point (0.00495,0)
V6: Removing PWL point (0.00495016,10)
V6: Removing PWL point (0.00496,0)
V6: Removing PWL point (0.00496069,10)
V6: Removing PWL point (0.00497,0)
V6: Removing PWL point (0.00497149,10)
V6: Removing PWL point (0.00498,0)
V6: Removing PWL point (0.0049825,10)
V6: Removing PWL point (0.00499,0)
V6: Removing PWL point (0.00499367,10)
V6: Removing PWL point (0.005,0)
V6: Removing PWL point (0.00500491,10)
V6: Removing PWL point (0.00501,0)
V6: Removing PWL point (0.00501615,10)
V6: Removing PWL point (0.00502,0)
V6: Removing PWL point (0.00502732,10)
V6: Removing PWL point (0.00503,0)
V6: Removing PWL point (0.00503833,10)
V6: Removing PWL point (0.00504,0)
V6: Removing PWL point (0.00504913,10)
V6: Removing PWL point (0.00505,0)
V6: Removing PWL point (0.00505966,10)
V6: Removing PWL point (0.00506,0)
V6: Removing PWL point (0.00506966,10)
V6: Removing PWL point (0.00507,0)
V6: Removing PWL point (0.00507966,10)
V6: Removing PWL point (0.00508,0)
V6: Removing PWL point (0.00508943,10)
V6: Removing PWL point (0.00509,0)
V6: Removing PWL point (0.00509876,10)
V6: Removing PWL point (0.0051,0)
V6: Removing PWL point (0.00510785,10)
V6: Removing PWL point (0.00511,0)
V6: Removing PWL point (0.00511675,10)
V6: Removing PWL point (0.00512,0)
V6: Removing PWL point (0.00512554,10)
V6: Removing PWL point (0.00513,0)
V6: Removing PWL point (0.00513428,10)
V6: Removing PWL point (0.00514,0)
V6: Removing PWL point (0.00514307,10)
V6: Removing PWL point (0.00515,0)
V6: Removing PWL point (0.00515197,10)
V6: Removing PWL point (0.00516,0)
V6: Removing PWL point (0.00516106,10)
V6: Removing PWL point (0.00517,0)
V6: Removing PWL point (0.00517039,10)
V6: Removing PWL point (0.00518,0)
V6: Removing PWL point (0.00518016,10)
V6: Removing PWL point (0.00519,0)
V6: Removing PWL point (0.00519016,10)
V6: Removing PWL point (0.0052,0)
V6: Removing PWL point (0.00520016,10)
V6: Removing PWL point (0.00521,0)
V6: Removing PWL point (0.00521069,10)
V6: Removing PWL point (0.00522,0)
V6: Removing PWL point (0.00522149,10)
V6: Removing PWL point (0.00523,0)
V6: Removing PWL point (0.0052325,10)
V6: Removing PWL point (0.00524,0)
V6: Removing PWL point (0.00524367,10)
V6: Removing PWL point (0.00525,0)
V6: Removing PWL point (0.00525491,10)
V6: Removing PWL point (0.00526,0)
V6: Removing PWL point (0.00526615,10)
V6: Removing PWL point (0.00527,0)
V6: Removing PWL point (0.00527732,10)
V6: Removing PWL point (0.00528,0)
V6: Removing PWL point (0.00528833,10)
V6: Removing PWL point (0.00529,0)
V6: Removing PWL point (0.00529913,10)
V6: Removing PWL point (0.0053,0)
V6: Removing PWL point (0.00530966,10)
V6: Removing PWL point (0.00531,0)
V6: Removing PWL point (0.00531966,10)
V6: Removing PWL point (0.00532,0)
V6: Removing PWL point (0.00532966,10)
V6: Removing PWL point (0.00533,0)
V6: Removing PWL point (0.00533943,10)
V6: Removing PWL point (0.00534,0)
V6: Removing PWL point (0.00534876,10)
V6: Removing PWL point (0.00535,0)
V6: Removing PWL point (0.00535785,10)
V6: Removing PWL point (0.00536,0)
V6: Removing PWL point (0.00536675,10)
V6: Removing PWL point (0.00537,0)
V6: Removing PWL point (0.00537554,10)
V6: Removing PWL point (0.00538,0)
V6: Removing PWL point (0.00538428,10)
V6: Removing PWL point (0.00539,0)
V6: Removing PWL point (0.00539307,10)
V6: Removing PWL point (0.0054,0)
V6: Removing PWL point (0.00540197,10)
V6: Removing PWL point (0.00541,0)
V6: Removing PWL point (0.00541106,10)
V6: Removing PWL point (0.00542,0)
V6: Removing PWL point (0.00542039,10)
V6: Removing PWL point (0.00543,0)
V6: Removing PWL point (0.00543016,10)
V6: Removing PWL point (0.00544,0)
V6: Removing PWL point (0.00544016,10)
V6: Removing PWL point (0.00545,0)
V6: Removing PWL point (0.00545016,10)
V6: Removing PWL point (0.00546,0)
V6: Removing PWL point (0.00546069,10)
V6: Removing PWL point (0.00547,0)
V6: Removing PWL point (0.00547149,10)
V6: Removing PWL point (0.00548,0)
V6: Removing PWL point (0.0054825,10)
V6: Removing PWL point (0.00549,0)
V6: Removing PWL point (0.00549367,10)
V6: Removing PWL point (0.0055,0)
V6: Removing PWL point (0.00550491,10)
V6: Removing PWL point (0.00551,0)
V6: Removing PWL point (0.00551615,10)
V6: Removing PWL point (0.00552,0)
V6: Removing PWL point (0.00552732,10)
V6: Removing PWL point (0.00553,0)
V6: Removing PWL point (0.00553833,10)
V6: Removing PWL point (0.00554,0)
V6: Removing PWL point (0.00554913,10)
V6: Removing PWL point (0.00555,0)
V6: Removing PWL point (0.00555966,10)
V6: Removing PWL point (0.00556,0)
V6: Removing PWL point (0.00556966,10)
V6: Removing PWL point (0.00557,0)
V6: Removing PWL point (0.00557966,10)
V6: Removing PWL point (0.00558,0)
V6: Removing PWL point (0.00558943,10)
V6: Removing PWL point (0.00559,0)
V6: Removing PWL point (0.00559876,10)
V6: Removing PWL point (0.0056,0)
V6: Removing PWL point (0.00560785,10)
V6: Removing PWL point (0.00561,0)
V6: Removing PWL point (0.00561675,10)
V6: Removing PWL point (0.00562,0)
V6: Removing PWL point (0.00562554,10)
V6: Removing PWL point (0.00563,0)
V6: Removing PWL point (0.00563428,10)
V6: Removing PWL point (0.00564,0)
V6: Removing PWL point (0.00564307,10)
V6: Removing PWL point (0.00565,0)
V6: Removing PWL point (0.00565197,10)
V6: Removing PWL point (0.00566,0)
V6: Removing PWL point (0.00566106,10)
V6: Removing PWL point (0.00567,0)
V6: Removing PWL point (0.00567039,10)
V6: Removing PWL point (0.00568,0)
V6: Removing PWL point (0.00568016,10)
V6: Removing PWL point (0.00569,0)
V6: Removing PWL point (0.00569016,10)
V6: Removing PWL point (0.0057,0)
V6: Removing PWL point (0.00570016,10)
V6: Removing PWL point (0.00571,0)
V6: Removing PWL point (0.00571069,10)
V6: Removing PWL point (0.00572,0)
V6: Removing PWL point (0.00572149,10)
V6: Removing PWL point (0.00573,0)
V6: Removing PWL point (0.0057325,10)
V6: Removing PWL point (0.00574,0)
V6: Removing PWL point (0.00574367,10)
V6: Removing PWL point (0.00575,0)
V6: Removing PWL point (0.00575491,10)
V6: Removing PWL point (0.00576,0)
V6: Removing PWL point (0.00576615,10)
V6: Removing PWL point (0.00577,0)
V6: Removing PWL point (0.00577732,10)
V6: Removing PWL point (0.00578,0)
V6: Removing PWL point (0.00578833,10)
V6: Removing PWL point (0.00579,0)
V6: Removing PWL point (0.00579913,10)
V6: Removing PWL point (0.0058,0)
V6: Removing PWL point (0.00580966,10)
V6: Removing PWL point (0.00581,0)
V6: Removing PWL point (0.00581966,10)
V6: Removing PWL point (0.00582,0)
V6: Removing PWL point (0.00582966,10)
V6: Removing PWL point (0.00583,0)
V6: Removing PWL point (0.00583943,10)
V6: Removing PWL point (0.00584,0)
V6: Removing PWL point (0.00584876,10)
V6: Removing PWL point (0.00585,0)
V6: Removing PWL point (0.00585785,10)
V6: Removing PWL point (0.00586,0)
V6: Removing PWL point (0.00586675,10)
V6: Removing PWL point (0.00587,0)
V6: Removing PWL point (0.00587554,10)
V6: Removing PWL point (0.00588,0)
V6: Removing PWL point (0.00588428,10)
V6: Removing PWL point (0.00589,0)
V6: Removing PWL point (0.00589307,10)
V6: Removing PWL point (0.0059,0)
V6: Removing PWL point (0.00590197,10)
V6: Removing PWL point (0.00591,0)
V6: Removing PWL point (0.00591106,10)
V6: Removing PWL point (0.00592,0)
V6: Removing PWL point (0.00592039,10)
V6: Removing PWL point (0.00593,0)
V6: Removing PWL point (0.00593016,10)
V6: Removing PWL point (0.00594,0)
V6: Removing PWL point (0.00594016,10)
V6: Removing PWL point (0.00595,0)
V6: Removing PWL point (0.00595016,10)
V6: Removing PWL point (0.00596,0)
V6: Removing PWL point (0.00596069,10)
V6: Removing PWL point (0.00597,0)
V6: Removing PWL point (0.00597149,10)
V6: Removing PWL point (0.00598,0)
V6: Removing PWL point (0.0059825,10)
V6: Removing PWL point (0.00599,0)
V6: Removing PWL point (0.00599367,10)
V6: Removing PWL point (0.006,0)
V6: Removing PWL point (0.00600491,10)
V6: Removing PWL point (0.00601,0)
V6: Removing PWL point (0.00601615,10)
V6: Removing PWL point (0.00602,0)
V6: Removing PWL point (0.00602732,10)
V6: Removing PWL point (0.00603,0)
V6: Removing PWL point (0.00603833,10)
V6: Removing PWL point (0.00604,0)
V6: Removing PWL point (0.00604913,10)
V6: Removing PWL point (0.00605,0)
V6: Removing PWL point (0.00605966,10)
V6: Removing PWL point (0.00606,0)
V6: Removing PWL point (0.00606966,10)
V6: Removing PWL point (0.00607,0)
V6: Removing PWL point (0.00607966,10)
V6: Removing PWL point (0.00608,0)
V6: Removing PWL point (0.00608943,10)
V6: Removing PWL point (0.00609,0)
V6: Removing PWL point (0.00609876,10)
V6: Removing PWL point (0.0061,0)
V6: Removing PWL point (0.00610785,10)
V6: Removing PWL point (0.00611,0)
V6: Removing PWL point (0.00611675,10)
V6: Removing PWL point (0.00612,0)
V6: Removing PWL point (0.00612554,10)
V6: Removing PWL point (0.00613,0)
V6: Removing PWL point (0.00613428,10)
V6: Removing PWL point (0.00614,0)
V6: Removing PWL point (0.00614307,10)
V6: Removing PWL point (0.00615,0)
V6: Removing PWL point (0.00615197,10)
V6: Removing PWL point (0.00616,0)
V6: Removing PWL point (0.00616106,10)
V6: Removing PWL point (0.00617,0)
V6: Removing PWL point (0.00617039,10)
V6: Removing PWL point (0.00618,0)
V6: Removing PWL point (0.00618016,10)
V6: Removing PWL point (0.00619,0)
V6: Removing PWL point (0.00619016,10)
V6: Removing PWL point (0.0062,0)
V6: Removing PWL point (0.00620016,10)
V6: Removing PWL point (0.00621,0)
V6: Removing PWL point (0.00621069,10)
V6: Removing PWL point (0.00622,0)
V6: Removing PWL point (0.00622149,10)
V6: Removing PWL point (0.00623,0)
V6: Removing PWL point (0.0062325,10)
V6: Removing PWL point (0.00624,0)
V6: Removing PWL point (0.00624367,10)
V6: Removing PWL point (0.00625,0)
V6: Removing PWL point (0.00625491,10)
V6: Removing PWL point (0.00626,0)
V6: Removing PWL point (0.00626615,10)
V6: Removing PWL point (0.00627,0)
V6: Removing PWL point (0.00627732,10)
V6: Removing PWL point (0.00628,0)
V6: Removing PWL point (0.00628833,10)
V6: Removing PWL point (0.00629,0)
V6: Removing PWL point (0.00629913,10)
V6: Removing PWL point (0.0063,0)
V6: Removing PWL point (0.00630966,10)
V6: Removing PWL point (0.00631,0)
V6: Removing PWL point (0.00631966,10)
V6: Removing PWL point (0.00632,0)
V6: Removing PWL point (0.00632966,10)
V6: Removing PWL point (0.00633,0)
V6: Removing PWL point (0.00633943,10)
V6: Removing PWL point (0.00634,0)
V6: Removing PWL point (0.00634876,10)
V6: Removing PWL point (0.00635,0)
V6: Removing PWL point (0.00635785,10)
V6: Removing PWL point (0.00636,0)
V6: Removing PWL point (0.00636675,10)
V6: Removing PWL point (0.00637,0)
V6: Removing PWL point (0.00637554,10)
V6: Removing PWL point (0.00638,0)
V6: Removing PWL point (0.00638428,10)
V6: Removing PWL point (0.00639,0)
V6: Removing PWL point (0.00639307,10)
V6: Removing PWL point (0.0064,0)
V6: Removing PWL point (0.00640197,10)
V6: Removing PWL point (0.00641,0)
V6: Removing PWL point (0.00641106,10)
V6: Removing PWL point (0.00642,0)
V6: Removing PWL point (0.00642039,10)
V6: Removing PWL point (0.00643,0)
V6: Removing PWL point (0.00643016,10)
V6: Removing PWL point (0.00644,0)
V6: Removing PWL point (0.00644016,10)
V6: Removing PWL point (0.00645,0)
V6: Removing PWL point (0.00645016,10)
V6: Removing PWL point (0.00646,0)
V6: Removing PWL point (0.00646069,10)
V6: Removing PWL point (0.00647,0)
V6: Removing PWL point (0.00647149,10)
V6: Removing PWL point (0.00648,0)
V6: Removing PWL point (0.0064825,10)
V6: Removing PWL point (0.00649,0)
V6: Removing PWL point (0.00649367,10)
V6: Removing PWL point (0.0065,0)
V6: Removing PWL point (0.00650491,10)
V6: Removing PWL point (0.00651,0)
V6: Removing PWL point (0.00651615,10)
V6: Removing PWL point (0.00652,0)
V6: Removing PWL point (0.00652732,10)
V6: Removing PWL point (0.00653,0)
V6: Removing PWL point (0.00653833,10)
V6: Removing PWL point (0.00654,0)
V6: Removing PWL point (0.00654913,10)
V6: Removing PWL point (0.00655,0)
V6: Removing PWL point (0.00655966,10)
V6: Removing PWL point (0.00656,0)
V6: Removing PWL point (0.00656966,10)
V6: Removing PWL point (0.00657,0)
V6: Removing PWL point (0.00657966,10)
V6: Removing PWL point (0.00658,0)
V6: Removing PWL point (0.00658943,10)
V6: Removing PWL point (0.00659,0)
V6: Removing PWL point (0.00659876,10)
V6: Removing PWL point (0.0066,0)
V6: Removing PWL point (0.00660785,10)
V6: Removing PWL point (0.00661,0)
V6: Removing PWL point (0.00661675,10)
V6: Removing PWL point (0.00662,0)
V6: Removing PWL point (0.00662554,10)
V6: Removing PWL point (0.00663,0)
V6: Removing PWL point (0.00663428,10)
V6: Removing PWL point (0.00664,0)
V6: Removing PWL point (0.00664307,10)
V6: Removing PWL point (0.00665,0)
V6: Removing PWL point (0.00665197,10)
V6: Removing PWL point (0.00666,0)
V6: Removing PWL point (0.00666106,10)
V6: Removing PWL point (0.00667,0)
V6: Removing PWL point (0.00667039,10)
V6: Removing PWL point (0.00668,0)
V6: Removing PWL point (0.00668016,10)
V6: Removing PWL point (0.00669,0)
V6: Removing PWL point (0.00669016,10)
V6: Removing PWL point (0.0067,0)
V6: Removing PWL point (0.00670016,10)
V6: Removing PWL point (0.00671,0)
V6: Removing PWL point (0.00671069,10)
V6: Removing PWL point (0.00672,0)
V6: Removing PWL point (0.00672149,10)
V6: Removing PWL point (0.00673,0)
V6: Removing PWL point (0.0067325,10)
V6: Removing PWL point (0.00674,0)
V6: Removing PWL point (0.00674367,10)
V6: Removing PWL point (0.00675,0)
V6: Removing PWL point (0.00675491,10)
V6: Removing PWL point (0.00676,0)
V6: Removing PWL point (0.00676615,10)
V6: Removing PWL point (0.00677,0)
V6: Removing PWL point (0.00677732,10)
V6: Removing PWL point (0.00678,0)
V6: Removing PWL point (0.00678833,10)
V6: Removing PWL point (0.00679,0)
V6: Removing PWL point (0.00679913,10)
V6: Removing PWL point (0.0068,0)
V6: Removing PWL point (0.00680966,10)
V6: Removing PWL point (0.00681,0)
V6: Removing PWL point (0.00681966,10)
V6: Removing PWL point (0.00682,0)
V6: Removing PWL point (0.00682966,10)
V6: Removing PWL point (0.00683,0)
V6: Removing PWL point (0.00683943,10)
V6: Removing PWL point (0.00684,0)
V6: Removing PWL point (0.00684876,10)
V6: Removing PWL point (0.00685,0)
V6: Removing PWL point (0.00685785,10)
V6: Removing PWL point (0.00686,0)
V6: Removing PWL point (0.00686675,10)
V6: Removing PWL point (0.00687,0)
V6: Removing PWL point (0.00687554,10)
V6: Removing PWL point (0.00688,0)
V6: Removing PWL point (0.00688428,10)
V6: Removing PWL point (0.00689,0)
V6: Removing PWL point (0.00689307,10)
V6: Removing PWL point (0.0069,0)
V6: Removing PWL point (0.00690197,10)
V6: Removing PWL point (0.00691,0)
V6: Removing PWL point (0.00691106,10)
V6: Removing PWL point (0.00692,0)
V6: Removing PWL point (0.00692039,10)
V6: Removing PWL point (0.00693,0)
V6: Removing PWL point (0.00693016,10)
V6: Removing PWL point (0.00694,0)
V6: Removing PWL point (0.00694016,10)
V6: Removing PWL point (0.00695,0)
V6: Removing PWL point (0.00695016,10)
V6: Removing PWL point (0.00696,0)
V6: Removing PWL point (0.00696069,10)
V6: Removing PWL point (0.00697,0)
V6: Removing PWL point (0.00697149,10)
V6: Removing PWL point (0.00698,0)
V6: Removing PWL point (0.0069825,10)
V6: Removing PWL point (0.00699,0)
V6: Removing PWL point (0.00699367,10)
V6: Removing PWL point (0.007,0)
V6: Removing PWL point (0.00700491,10)
V6: Removing PWL point (0.00701,0)
V6: Removing PWL point (0.00701615,10)
V6: Removing PWL point (0.00702,0)
V6: Removing PWL point (0.00702732,10)
V6: Removing PWL point (0.00703,0)
V6: Removing PWL point (0.00703833,10)
V6: Removing PWL point (0.00704,0)
V6: Removing PWL point (0.00704913,10)
V6: Removing PWL point (0.00705,0)
V6: Removing PWL point (0.00705966,10)
V6: Removing PWL point (0.00706,0)
V6: Removing PWL point (0.00706966,10)
V6: Removing PWL point (0.00707,0)
V6: Removing PWL point (0.00707966,10)
V6: Removing PWL point (0.00708,0)
V6: Removing PWL point (0.00708943,10)
V6: Removing PWL point (0.00709,0)
V6: Removing PWL point (0.00709876,10)
V6: Removing PWL point (0.0071,0)
V6: Removing PWL point (0.00710785,10)
V6: Removing PWL point (0.00711,0)
V6: Removing PWL point (0.00711675,10)
V6: Removing PWL point (0.00712,0)
V6: Removing PWL point (0.00712554,10)
V6: Removing PWL point (0.00713,0)
V6: Removing PWL point (0.00713428,10)
V6: Removing PWL point (0.00714,0)
V6: Removing PWL point (0.00714307,10)
V6: Removing PWL point (0.00715,0)
V6: Removing PWL point (0.00715197,10)
V6: Removing PWL point (0.00716,0)
V6: Removing PWL point (0.00716106,10)
V6: Removing PWL point (0.00717,0)
V6: Removing PWL point (0.00717039,10)
V6: Removing PWL point (0.00718,0)
V6: Removing PWL point (0.00718016,10)
V6: Removing PWL point (0.00719,0)
V6: Removing PWL point (0.00719016,10)
V6: Removing PWL point (0.0072,0)
V6: Removing PWL point (0.00720016,10)
V6: Removing PWL point (0.00721,0)
V6: Removing PWL point (0.00721069,10)
V6: Removing PWL point (0.00722,0)
V6: Removing PWL point (0.00722149,10)
V6: Removing PWL point (0.00723,0)
V6: Removing PWL point (0.0072325,10)
V6: Removing PWL point (0.00724,0)
V6: Removing PWL point (0.00724367,10)
V6: Removing PWL point (0.00725,0)
V6: Removing PWL point (0.00725491,10)
V6: Removing PWL point (0.00726,0)
V6: Removing PWL point (0.00726615,10)
V6: Removing PWL point (0.00727,0)
V6: Removing PWL point (0.00727732,10)
V6: Removing PWL point (0.00728,0)
V6: Removing PWL point (0.00728833,10)
V6: Removing PWL point (0.00729,0)
V6: Removing PWL point (0.00729913,10)
V6: Removing PWL point (0.0073,0)
V6: Removing PWL point (0.00730966,10)
V6: Removing PWL point (0.00731,0)
V6: Removing PWL point (0.00731966,10)
V6: Removing PWL point (0.00732,0)
V6: Removing PWL point (0.00732966,10)
V6: Removing PWL point (0.00733,0)
V6: Removing PWL point (0.00733943,10)
V6: Removing PWL point (0.00734,0)
V6: Removing PWL point (0.00734876,10)
V6: Removing PWL point (0.00735,0)
V6: Removing PWL point (0.00735785,10)
V6: Removing PWL point (0.00736,0)
V6: Removing PWL point (0.00736675,10)
V6: Removing PWL point (0.00737,0)
V6: Removing PWL point (0.00737554,10)
V6: Removing PWL point (0.00738,0)
V6: Removing PWL point (0.00738428,10)
V6: Removing PWL point (0.00739,0)
V6: Removing PWL point (0.00739307,10)
V6: Removing PWL point (0.0074,0)
V6: Removing PWL point (0.00740197,10)
V6: Removing PWL point (0.00741,0)
V6: Removing PWL point (0.00741106,10)
V6: Removing PWL point (0.00742,0)
V6: Removing PWL point (0.00742039,10)
V6: Removing PWL point (0.00743,0)
V6: Removing PWL point (0.00743016,10)
V6: Removing PWL point (0.00744,0)
V6: Removing PWL point (0.00744016,10)
V6: Removing PWL point (0.00745,0)
V6: Removing PWL point (0.00745016,10)
V6: Removing PWL point (0.00746,0)
V6: Removing PWL point (0.00746069,10)
V6: Removing PWL point (0.00747,0)
V6: Removing PWL point (0.00747149,10)
V6: Removing PWL point (0.00748,0)
V6: Removing PWL point (0.0074825,10)
V6: Removing PWL point (0.00749,0)
V6: Removing PWL point (0.00749367,10)
V6: Removing PWL point (0.0075,0)
V6: Removing PWL point (0.00750491,10)
V6: Removing PWL point (0.00751,0)
V6: Removing PWL point (0.00751615,10)
V6: Removing PWL point (0.00752,0)
V6: Removing PWL point (0.00752732,10)
V6: Removing PWL point (0.00753,0)
V6: Removing PWL point (0.00753833,10)
V6: Removing PWL point (0.00754,0)
V6: Removing PWL point (0.00754913,10)
V6: Removing PWL point (0.00755,0)
V6: Removing PWL point (0.00755966,10)
V6: Removing PWL point (0.00756,0)
V6: Removing PWL point (0.00756966,10)
V6: Removing PWL point (0.00757,0)
V6: Removing PWL point (0.00757966,10)
V6: Removing PWL point (0.00758,0)
V6: Removing PWL point (0.00758943,10)
V6: Removing PWL point (0.00759,0)
V6: Removing PWL point (0.00759876,10)
V6: Removing PWL point (0.0076,0)
V6: Removing PWL point (0.00760785,10)
V6: Removing PWL point (0.00761,0)
V6: Removing PWL point (0.00761675,10)
V6: Removing PWL point (0.00762,0)
V6: Removing PWL point (0.00762554,10)
V6: Removing PWL point (0.00763,0)
V6: Removing PWL point (0.00763428,10)
V6: Removing PWL point (0.00764,0)
V6: Removing PWL point (0.00764307,10)
V6: Removing PWL point (0.00765,0)
V6: Removing PWL point (0.00765197,10)
V6: Removing PWL point (0.00766,0)
V6: Removing PWL point (0.00766106,10)
V6: Removing PWL point (0.00767,0)
V6: Removing PWL point (0.00767039,10)
V6: Removing PWL point (0.00768,0)
V6: Removing PWL point (0.00768016,10)
V6: Removing PWL point (0.00769,0)
V6: Removing PWL point (0.00769016,10)
V6: Removing PWL point (0.0077,0)
V6: Removing PWL point (0.00770016,10)
V6: Removing PWL point (0.00771,0)
V6: Removing PWL point (0.00771069,10)
V6: Removing PWL point (0.00772,0)
V6: Removing PWL point (0.00772149,10)
V6: Removing PWL point (0.00773,0)
V6: Removing PWL point (0.0077325,10)
V6: Removing PWL point (0.00774,0)
V6: Removing PWL point (0.00774367,10)
V6: Removing PWL point (0.00775,0)
V6: Removing PWL point (0.00775491,10)
V6: Removing PWL point (0.00776,0)
V6: Removing PWL point (0.00776615,10)
V6: Removing PWL point (0.00777,0)
V6: Removing PWL point (0.00777732,10)
V6: Removing PWL point (0.00778,0)
V6: Removing PWL point (0.00778833,10)
V6: Removing PWL point (0.00779,0)
V6: Removing PWL point (0.00779913,10)
V6: Removing PWL point (0.0078,0)
V6: Removing PWL point (0.00780966,10)
V6: Removing PWL point (0.00781,0)
V6: Removing PWL point (0.00781966,10)
V6: Removing PWL point (0.00782,0)
V6: Removing PWL point (0.00782966,10)
V6: Removing PWL point (0.00783,0)
V6: Removing PWL point (0.00783943,10)
V6: Removing PWL point (0.00784,0)
V6: Removing PWL point (0.00784876,10)
V6: Removing PWL point (0.00785,0)
V6: Removing PWL point (0.00785785,10)
V6: Removing PWL point (0.00786,0)
V6: Removing PWL point (0.00786675,10)
V6: Removing PWL point (0.00787,0)
V6: Removing PWL point (0.00787554,10)
V6: Removing PWL point (0.00788,0)
V6: Removing PWL point (0.00788428,10)
V6: Removing PWL point (0.00789,0)
V6: Removing PWL point (0.00789307,10)
V6: Removing PWL point (0.0079,0)
V6: Removing PWL point (0.00790197,10)
V6: Removing PWL point (0.00791,0)
V6: Removing PWL point (0.00791106,10)
V6: Removing PWL point (0.00792,0)
V6: Removing PWL point (0.00792039,10)
V6: Removing PWL point (0.00793,0)
V6: Removing PWL point (0.00793016,10)
V6: Removing PWL point (0.00794,0)
V6: Removing PWL point (0.00794016,10)
V6: Removing PWL point (0.00795,0)
V6: Removing PWL point (0.00795016,10)
V6: Removing PWL point (0.00796,0)
V6: Removing PWL point (0.00796069,10)
V6: Removing PWL point (0.00797,0)
V6: Removing PWL point (0.00797149,10)
V6: Removing PWL point (0.00798,0)
V6: Removing PWL point (0.0079825,10)
V6: Removing PWL point (0.00799,0)
V6: Removing PWL point (0.00799367,10)
V6: Removing PWL point (0.008,0)
V6: Removing PWL point (0.00800491,10)
V6: Removing PWL point (0.00801,0)
V6: Removing PWL point (0.00801615,10)
V6: Removing PWL point (0.00802,0)
V6: Removing PWL point (0.00802732,10)
V6: Removing PWL point (0.00803,0)
V6: Removing PWL point (0.00803833,10)
V6: Removing PWL point (0.00804,0)
V6: Removing PWL point (0.00804913,10)
V6: Removing PWL point (0.00805,0)
V6: Removing PWL point (0.00805966,10)
V6: Removing PWL point (0.00806,0)
V6: Removing PWL point (0.00806966,10)
V6: Removing PWL point (0.00807,0)
V6: Removing PWL point (0.00807966,10)
V6: Removing PWL point (0.00808,0)
V6: Removing PWL point (0.00808943,10)
V6: Removing PWL point (0.00809,0)
V6: Removing PWL point (0.00809876,10)
V6: Removing PWL point (0.0081,0)
V6: Removing PWL point (0.00810785,10)
V6: Removing PWL point (0.00811,0)
V6: Removing PWL point (0.00811675,10)
V6: Removing PWL point (0.00812,0)
V6: Removing PWL point (0.00812554,10)
V6: Removing PWL point (0.00813,0)
V6: Removing PWL point (0.00813428,10)
V6: Removing PWL point (0.00814,0)
V6: Removing PWL point (0.00814307,10)
V6: Removing PWL point (0.00815,0)
V6: Removing PWL point (0.00815197,10)
V6: Removing PWL point (0.00816,0)
V6: Removing PWL point (0.00816106,10)
V6: Removing PWL point (0.00817,0)
V6: Removing PWL point (0.00817039,10)
V6: Removing PWL point (0.00818,0)
V6: Removing PWL point (0.00818016,10)
V6: Removing PWL point (0.00819,0)
V6: Removing PWL point (0.00819016,10)
V6: Removing PWL point (0.0082,0)
V6: Removing PWL point (0.00820016,10)
V6: Removing PWL point (0.00821,0)
V6: Removing PWL point (0.00821069,10)
V6: Removing PWL point (0.00822,0)
V6: Removing PWL point (0.00822149,10)
V6: Removing PWL point (0.00823,0)
V6: Removing PWL point (0.0082325,10)
V6: Removing PWL point (0.00824,0)
V6: Removing PWL point (0.00824367,10)
V6: Removing PWL point (0.00825,0)
V6: Removing PWL point (0.00825491,10)
V6: Removing PWL point (0.00826,0)
V6: Removing PWL point (0.00826615,10)
V6: Removing PWL point (0.00827,0)
V6: Removing PWL point (0.00827732,10)
V6: Removing PWL point (0.00828,0)
V6: Removing PWL point (0.00828833,10)
V6: Removing PWL point (0.00829,0)
V6: Removing PWL point (0.00829913,10)
V6: Removing PWL point (0.0083,0)
V6: Removing PWL point (0.00830966,10)
V6: Removing PWL point (0.00831,0)
V6: Removing PWL point (0.00831966,10)
V6: Removing PWL point (0.00832,0)
V6: Removing PWL point (0.00832966,10)
V6: Removing PWL point (0.00833,0)
V6: Removing PWL point (0.00833943,10)
V6: Removing PWL point (0.00834,0)
V6: Removing PWL point (0.00834876,10)
V6: Removing PWL point (0.00835,0)
V6: Removing PWL point (0.00835785,10)
V6: Removing PWL point (0.00836,0)
V6: Removing PWL point (0.00836675,10)
V6: Removing PWL point (0.00837,0)
V6: Removing PWL point (0.00837554,10)
V6: Removing PWL point (0.00838,0)
V6: Removing PWL point (0.00838428,10)
V6: Removing PWL point (0.00839,0)
V6: Removing PWL point (0.00839307,10)
V6: Removing PWL point (0.0084,0)
V6: Removing PWL point (0.00840197,10)
V6: Removing PWL point (0.00841,0)
V6: Removing PWL point (0.00841106,10)
V6: Removing PWL point (0.00842,0)
V6: Removing PWL point (0.00842039,10)
V6: Removing PWL point (0.00843,0)
V6: Removing PWL point (0.00843016,10)
V6: Removing PWL point (0.00844,0)
V6: Removing PWL point (0.00844016,10)
V6: Removing PWL point (0.00845,0)
V6: Removing PWL point (0.00845016,10)
V6: Removing PWL point (0.00846,0)
V6: Removing PWL point (0.00846069,10)
V6: Removing PWL point (0.00847,0)
V6: Removing PWL point (0.00847149,10)
V6: Removing PWL point (0.00848,0)
V6: Removing PWL point (0.0084825,10)
V6: Removing PWL point (0.00849,0)
V6: Removing PWL point (0.00849367,10)
V6: Removing PWL point (0.0085,0)
V6: Removing PWL point (0.00850491,10)
V6: Removing PWL point (0.00851,0)
V6: Removing PWL point (0.00851615,10)
V6: Removing PWL point (0.00852,0)
V6: Removing PWL point (0.00852732,10)
V6: Removing PWL point (0.00853,0)
V6: Removing PWL point (0.00853833,10)
V6: Removing PWL point (0.00854,0)
V6: Removing PWL point (0.00854913,10)
V6: Removing PWL point (0.00855,0)
V6: Removing PWL point (0.00855966,10)
V6: Removing PWL point (0.00856,0)
V6: Removing PWL point (0.00856966,10)
V6: Removing PWL point (0.00857,0)
V6: Removing PWL point (0.00857966,10)
V6: Removing PWL point (0.00858,0)
V6: Removing PWL point (0.00858943,10)
V6: Removing PWL point (0.00859,0)
V6: Removing PWL point (0.00859876,10)
V6: Removing PWL point (0.0086,0)
V6: Removing PWL point (0.00860785,10)
V6: Removing PWL point (0.00861,0)
V6: Removing PWL point (0.00861675,10)
V6: Removing PWL point (0.00862,0)
V6: Removing PWL point (0.00862554,10)
V6: Removing PWL point (0.00863,0)
V6: Removing PWL point (0.00863428,10)
V6: Removing PWL point (0.00864,0)
V6: Removing PWL point (0.00864307,10)
V6: Removing PWL point (0.00865,0)
V6: Removing PWL point (0.00865197,10)
V6: Removing PWL point (0.00866,0)
V6: Removing PWL point (0.00866106,10)
V6: Removing PWL point (0.00867,0)
V6: Removing PWL point (0.00867039,10)
V6: Removing PWL point (0.00868,0)
V6: Removing PWL point (0.00868016,10)
V6: Removing PWL point (0.00869,0)
V6: Removing PWL point (0.00869016,10)
V6: Removing PWL point (0.0087,0)
V6: Removing PWL point (0.00870016,10)
V6: Removing PWL point (0.00871,0)
V6: Removing PWL point (0.00871069,10)
V6: Removing PWL point (0.00872,0)
V6: Removing PWL point (0.00872149,10)
V6: Removing PWL point (0.00873,0)
V6: Removing PWL point (0.0087325,10)
V6: Removing PWL point (0.00874,0)
V6: Removing PWL point (0.00874367,10)
V6: Removing PWL point (0.00875,0)
V6: Removing PWL point (0.00875491,10)
V6: Removing PWL point (0.00876,0)
V6: Removing PWL point (0.00876615,10)
V6: Removing PWL point (0.00877,0)
V6: Removing PWL point (0.00877732,10)
V6: Removing PWL point (0.00878,0)
V6: Removing PWL point (0.00878833,10)
V6: Removing PWL point (0.00879,0)
V6: Removing PWL point (0.00879913,10)
V6: Removing PWL point (0.0088,0)
V6: Removing PWL point (0.00880966,10)
V6: Removing PWL point (0.00881,0)
V6: Removing PWL point (0.00881966,10)
V6: Removing PWL point (0.00882,0)
V6: Removing PWL point (0.00882966,10)
V6: Removing PWL point (0.00883,0)
V6: Removing PWL point (0.00883943,10)
V6: Removing PWL point (0.00884,0)
V6: Removing PWL point (0.00884876,10)
V6: Removing PWL point (0.00885,0)
V6: Removing PWL point (0.00885785,10)
V6: Removing PWL point (0.00886,0)
V6: Removing PWL point (0.00886675,10)
V6: Removing PWL point (0.00887,0)
V6: Removing PWL point (0.00887554,10)
V6: Removing PWL point (0.00888,0)
V6: Removing PWL point (0.00888428,10)
V6: Removing PWL point (0.00889,0)
V6: Removing PWL point (0.00889307,10)
V6: Removing PWL point (0.0089,0)
V6: Removing PWL point (0.00890197,10)
V6: Removing PWL point (0.00891,0)
V6: Removing PWL point (0.00891106,10)
V6: Removing PWL point (0.00892,0)
V6: Removing PWL point (0.00892039,10)
V6: Removing PWL point (0.00893,0)
V6: Removing PWL point (0.00893016,10)
V6: Removing PWL point (0.00894,0)
V6: Removing PWL point (0.00894016,10)
V6: Removing PWL point (0.00895,0)
V6: Removing PWL point (0.00895016,10)
V6: Removing PWL point (0.00896,0)
V6: Removing PWL point (0.00896069,10)
V6: Removing PWL point (0.00897,0)
V6: Removing PWL point (0.00897149,10)
V6: Removing PWL point (0.00898,0)
V6: Removing PWL point (0.0089825,10)
V6: Removing PWL point (0.00899,0)
V6: Removing PWL point (0.00899367,10)
V6: Removing PWL point (0.009,0)
V6: Removing PWL point (0.00900491,10)
V6: Removing PWL point (0.00901,0)
V6: Removing PWL point (0.00901615,10)
V6: Removing PWL point (0.00902,0)
V6: Removing PWL point (0.00902732,10)
V6: Removing PWL point (0.00903,0)
V6: Removing PWL point (0.00903833,10)
V6: Removing PWL point (0.00904,0)
V6: Removing PWL point (0.00904913,10)
V6: Removing PWL point (0.00905,0)
V6: Removing PWL point (0.00905966,10)
V6: Removing PWL point (0.00906,0)
V6: Removing PWL point (0.00906966,10)
V6: Removing PWL point (0.00907,0)
V6: Removing PWL point (0.00907966,10)
V6: Removing PWL point (0.00908,0)
V6: Removing PWL point (0.00908943,10)
V6: Removing PWL point (0.00909,0)
V6: Removing PWL point (0.00909876,10)
V6: Removing PWL point (0.0091,0)
V6: Removing PWL point (0.00910785,10)
V6: Removing PWL point (0.00911,0)
V6: Removing PWL point (0.00911675,10)
V6: Removing PWL point (0.00912,0)
V6: Removing PWL point (0.00912554,10)
V6: Removing PWL point (0.00913,0)
V6: Removing PWL point (0.00913428,10)
V6: Removing PWL point (0.00914,0)
V6: Removing PWL point (0.00914307,10)
V6: Removing PWL point (0.00915,0)
V6: Removing PWL point (0.00915197,10)
V6: Removing PWL point (0.00916,0)
V6: Removing PWL point (0.00916106,10)
V6: Removing PWL point (0.00917,0)
V6: Removing PWL point (0.00917039,10)
V6: Removing PWL point (0.00918,0)
V6: Removing PWL point (0.00918016,10)
V6: Removing PWL point (0.00919,0)
V6: Removing PWL point (0.00919016,10)
V6: Removing PWL point (0.0092,0)
V6: Removing PWL point (0.00920016,10)
V6: Removing PWL point (0.00921,0)
V6: Removing PWL point (0.00921069,10)
V6: Removing PWL point (0.00922,0)
V6: Removing PWL point (0.00922149,10)
V6: Removing PWL point (0.00923,0)
V6: Removing PWL point (0.0092325,10)
V6: Removing PWL point (0.00924,0)
V6: Removing PWL point (0.00924367,10)
V6: Removing PWL point (0.00925,0)
V6: Removing PWL point (0.00925491,10)
V6: Removing PWL point (0.00926,0)
V6: Removing PWL point (0.00926615,10)
V6: Removing PWL point (0.00927,0)
V6: Removing PWL point (0.00927732,10)
V6: Removing PWL point (0.00928,0)
V6: Removing PWL point (0.00928833,10)
V6: Removing PWL point (0.00929,0)
V6: Removing PWL point (0.00929913,10)
V6: Removing PWL point (0.0093,0)
V6: Removing PWL point (0.00930966,10)
V6: Removing PWL point (0.00931,0)
V6: Removing PWL point (0.00931966,10)
V6: Removing PWL point (0.00932,0)
V6: Removing PWL point (0.00932966,10)
V6: Removing PWL point (0.00933,0)
V6: Removing PWL point (0.00933943,10)
V6: Removing PWL point (0.00934,0)
V6: Removing PWL point (0.00934876,10)
V6: Removing PWL point (0.00935,0)
V6: Removing PWL point (0.00935785,10)
V6: Removing PWL point (0.00936,0)
V6: Removing PWL point (0.00936675,10)
V6: Removing PWL point (0.00937,0)
V6: Removing PWL point (0.00937554,10)
V6: Removing PWL point (0.00938,0)
V6: Removing PWL point (0.00938428,10)
V6: Removing PWL point (0.00939,0)
V6: Removing PWL point (0.00939307,10)
V6: Removing PWL point (0.0094,0)
V6: Removing PWL point (0.00940197,10)
V6: Removing PWL point (0.00941,0)
V6: Removing PWL point (0.00941106,10)
V6: Removing PWL point (0.00942,0)
V6: Removing PWL point (0.00942039,10)
V6: Removing PWL point (0.00943,0)
V6: Removing PWL point (0.00943016,10)
V6: Removing PWL point (0.00944,0)
V6: Removing PWL point (0.00944016,10)
V6: Removing PWL point (0.00945,0)
V6: Removing PWL point (0.00945016,10)
V6: Removing PWL point (0.00946,0)
V6: Removing PWL point (0.00946069,10)
V6: Removing PWL point (0.00947,0)
V6: Removing PWL point (0.00947149,10)
V6: Removing PWL point (0.00948,0)
V6: Removing PWL point (0.0094825,10)
V6: Removing PWL point (0.00949,0)
V6: Removing PWL point (0.00949367,10)
V6: Removing PWL point (0.0095,0)
V6: Removing PWL point (0.00950491,10)
V6: Removing PWL point (0.00951,0)
V6: Removing PWL point (0.00951615,10)
V6: Removing PWL point (0.00952,0)
V6: Removing PWL point (0.00952732,10)
V6: Removing PWL point (0.00953,0)
V6: Removing PWL point (0.00953833,10)
V6: Removing PWL point (0.00954,0)
V6: Removing PWL point (0.00954913,10)
V6: Removing PWL point (0.00955,0)
V6: Removing PWL point (0.00955966,10)
V6: Removing PWL point (0.00956,0)
V6: Removing PWL point (0.00956966,10)
V6: Removing PWL point (0.00957,0)
V6: Removing PWL point (0.00957966,10)
V6: Removing PWL point (0.00958,0)
V6: Removing PWL point (0.00958943,10)
V6: Removing PWL point (0.00959,0)
V6: Removing PWL point (0.00959876,10)
V6: Removing PWL point (0.0096,0)
V6: Removing PWL point (0.00960785,10)
V6: Removing PWL point (0.00961,0)
V6: Removing PWL point (0.00961675,10)
V6: Removing PWL point (0.00962,0)
V6: Removing PWL point (0.00962554,10)
V6: Removing PWL point (0.00963,0)
V6: Removing PWL point (0.00963428,10)
V6: Removing PWL point (0.00964,0)
V6: Removing PWL point (0.00964307,10)
V6: Removing PWL point (0.00965,0)
V6: Removing PWL point (0.00965197,10)
V6: Removing PWL point (0.00966,0)
V6: Removing PWL point (0.00966106,10)
V6: Removing PWL point (0.00967,0)
V6: Removing PWL point (0.00967039,10)
V6: Removing PWL point (0.00968,0)
V6: Removing PWL point (0.00968016,10)
V6: Removing PWL point (0.00969,0)
V6: Removing PWL point (0.00969016,10)
V6: Removing PWL point (0.0097,0)
V6: Removing PWL point (0.00970016,10)
V6: Removing PWL point (0.00971,0)
V6: Removing PWL point (0.00971069,10)
V6: Removing PWL point (0.00972,0)
V6: Removing PWL point (0.00972149,10)
V6: Removing PWL point (0.00973,0)
V6: Removing PWL point (0.0097325,10)
V6: Removing PWL point (0.00974,0)
V6: Removing PWL point (0.00974367,10)
V6: Removing PWL point (0.00975,0)
V6: Removing PWL point (0.00975491,10)
V6: Removing PWL point (0.00976,0)
V6: Removing PWL point (0.00976615,10)
V6: Removing PWL point (0.00977,0)
V6: Removing PWL point (0.00977732,10)
V6: Removing PWL point (0.00978,0)
V6: Removing PWL point (0.00978833,10)
V6: Removing PWL point (0.00979,0)
V6: Removing PWL point (0.00979913,10)
V6: Removing PWL point (0.0098,0)
V6: Removing PWL point (0.00980966,10)
V6: Removing PWL point (0.00981,0)
V6: Removing PWL point (0.00981966,10)
V6: Removing PWL point (0.00982,0)
V6: Removing PWL point (0.00982966,10)
V6: Removing PWL point (0.00983,0)
V6: Removing PWL point (0.00983943,10)
V6: Removing PWL point (0.00984,0)
V6: Removing PWL point (0.00984876,10)
V6: Removing PWL point (0.00985,0)
V6: Removing PWL point (0.00985785,10)
V6: Removing PWL point (0.00986,0)
V6: Removing PWL point (0.00986675,10)
V6: Removing PWL point (0.00987,0)
V6: Removing PWL point (0.00987554,10)
V6: Removing PWL point (0.00988,0)
V6: Removing PWL point (0.00988428,10)
V6: Removing PWL point (0.00989,0)
V6: Removing PWL point (0.00989307,10)
V6: Removing PWL point (0.0099,0)
V6: Removing PWL point (0.00990197,10)
V6: Removing PWL point (0.00991,0)
V6: Removing PWL point (0.00991106,10)
V6: Removing PWL point (0.00992,0)
V6: Removing PWL point (0.00992039,10)
V6: Removing PWL point (0.00993,0)
V6: Removing PWL point (0.00993016,10)
V6: Removing PWL point (0.00994,0)
V6: Removing PWL point (0.00994016,10)
V6: Removing PWL point (0.00995,0)
V6: Removing PWL point (0.00995016,10)
V6: Removing PWL point (0.00996,0)
V6: Removing PWL point (0.00996069,10)
V6: Removing PWL point (0.00997,0)
V6: Removing PWL point (0.00997149,10)
V6: Removing PWL point (0.00998,0)
V6: Removing PWL point (0.0099825,10)
V6: Removing PWL point (0.00999,0)
V6: Removing PWL point (0.00999367,10)
V6: Removing PWL point (0.01,0)
V6: Removing PWL point (0.0100049,10)
V6: Removing PWL point (0.01001,0)
V6: Removing PWL point (0.0100162,10)
V6: Removing PWL point (0.01002,0)
V6: Removing PWL point (0.0100273,10)
V6: Removing PWL point (0.01003,0)
V6: Removing PWL point (0.0100383,10)
V6: Removing PWL point (0.01004,0)
V6: Removing PWL point (0.0100491,10)
V6: Removing PWL point (0.01005,0)
V6: Removing PWL point (0.0100597,10)
V6: Removing PWL point (0.01006,0)
V6: Removing PWL point (0.0100697,10)
V6: Removing PWL point (0.01007,0)
V6: Removing PWL point (0.0100797,10)
V6: Removing PWL point (0.01008,0)
V6: Removing PWL point (0.0100894,10)
V6: Removing PWL point (0.01009,0)
V6: Removing PWL point (0.0100988,10)
V6: Removing PWL point (0.0101,0)
V6: Removing PWL point (0.0101078,10)
V6: Removing PWL point (0.01011,0)
V6: Removing PWL point (0.0101168,10)
V6: Removing PWL point (0.01012,0)
V6: Removing PWL point (0.0101255,10)
V6: Removing PWL point (0.01013,0)
V6: Removing PWL point (0.0101343,10)
V6: Removing PWL point (0.01014,0)
V6: Removing PWL point (0.0101431,10)
V6: Removing PWL point (0.01015,0)
V6: Removing PWL point (0.010152,10)
V6: Removing PWL point (0.01016,0)
V6: Removing PWL point (0.0101611,10)
V6: Removing PWL point (0.01017,0)
V6: Removing PWL point (0.0101704,10)
V6: Removing PWL point (0.01018,0)
V6: Removing PWL point (0.0101802,10)
V6: Removing PWL point (0.01019,0)
V6: Removing PWL point (0.0101902,10)
V6: Removing PWL point (0.0102,0)
V6: Removing PWL point (0.0102002,10)
V6: Removing PWL point (0.01021,0)
V6: Removing PWL point (0.0102107,10)
V6: Removing PWL point (0.01022,0)
V6: Removing PWL point (0.0102215,10)
V6: Removing PWL point (0.01023,0)
V6: Removing PWL point (0.0102325,10)
V6: Removing PWL point (0.01024,0)
V6: Removing PWL point (0.0102437,10)
V6: Removing PWL point (0.01025,0)
V6: Removing PWL point (0.0102549,10)
V6: Removing PWL point (0.01026,0)
V6: Removing PWL point (0.0102662,10)
V6: Removing PWL point (0.01027,0)
V6: Removing PWL point (0.0102773,10)
V6: Removing PWL point (0.01028,0)
V6: Removing PWL point (0.0102883,10)
V6: Removing PWL point (0.01029,0)
V6: Removing PWL point (0.0102991,10)
V6: Removing PWL point (0.0103,0)
V6: Removing PWL point (0.0103097,10)
V6: Removing PWL point (0.01031,0)
V6: Removing PWL point (0.0103197,10)
V6: Removing PWL point (0.01032,0)
V6: Removing PWL point (0.0103297,10)
V6: Removing PWL point (0.01033,0)
V6: Removing PWL point (0.0103394,10)
V6: Removing PWL point (0.01034,0)
V6: Removing PWL point (0.0103488,10)
V6: Removing PWL point (0.01035,0)
V6: Removing PWL point (0.0103578,10)
V6: Removing PWL point (0.01036,0)
V6: Removing PWL point (0.0103668,10)
V6: Removing PWL point (0.01037,0)
V6: Removing PWL point (0.0103755,10)
V6: Removing PWL point (0.01038,0)
V6: Removing PWL point (0.0103843,10)
V6: Removing PWL point (0.01039,0)
V6: Removing PWL point (0.0103931,10)
V6: Removing PWL point (0.0104,0)
V6: Removing PWL point (0.010402,10)
V6: Removing PWL point (0.01041,0)
V6: Removing PWL point (0.0104111,10)
V6: Removing PWL point (0.01042,0)
V6: Removing PWL point (0.0104204,10)
V6: Removing PWL point (0.01043,0)
V6: Removing PWL point (0.0104302,10)
V6: Removing PWL point (0.01044,0)
V6: Removing PWL point (0.0104402,10)
V6: Removing PWL point (0.01045,0)
V6: Removing PWL point (0.0104502,10)
V6: Removing PWL point (0.01046,0)
V6: Removing PWL point (0.0104607,10)
V6: Removing PWL point (0.01047,0)
V6: Removing PWL point (0.0104715,10)
V6: Removing PWL point (0.01048,0)
V6: Removing PWL point (0.0104825,10)
V6: Removing PWL point (0.01049,0)
V6: Removing PWL point (0.0104937,10)
V6: Removing PWL point (0.0105,0)
V6: Removing PWL point (0.0105049,10)
V6: Removing PWL point (0.01051,0)
V6: Removing PWL point (0.0105162,10)
V6: Removing PWL point (0.01052,0)
V6: Removing PWL point (0.0105273,10)
V6: Removing PWL point (0.01053,0)
V6: Removing PWL point (0.0105383,10)
V6: Removing PWL point (0.01054,0)
V6: Removing PWL point (0.0105491,10)
V6: Removing PWL point (0.01055,0)
V6: Removing PWL point (0.0105597,10)
V6: Removing PWL point (0.01056,0)
V6: Removing PWL point (0.0105697,10)
V6: Removing PWL point (0.01057,0)
V6: Removing PWL point (0.0105797,10)
V6: Removing PWL point (0.01058,0)
V6: Removing PWL point (0.0105894,10)
V6: Removing PWL point (0.01059,0)
V6: Removing PWL point (0.0105988,10)
V6: Removing PWL point (0.0106,0)
V6: Removing PWL point (0.0106078,10)
V6: Removing PWL point (0.01061,0)
V6: Removing PWL point (0.0106168,10)
V6: Removing PWL point (0.01062,0)
V6: Removing PWL point (0.0106255,10)
V6: Removing PWL point (0.01063,0)
V6: Removing PWL point (0.0106343,10)
V6: Removing PWL point (0.01064,0)
V6: Removing PWL point (0.0106431,10)
V6: Removing PWL point (0.01065,0)
V6: Removing PWL point (0.010652,10)
V6: Removing PWL point (0.01066,0)
V6: Removing PWL point (0.0106611,10)
V6: Removing PWL point (0.01067,0)
V6: Removing PWL point (0.0106704,10)
V6: Removing PWL point (0.01068,0)
V6: Removing PWL point (0.0106802,10)
V6: Removing PWL point (0.01069,0)
V6: Removing PWL point (0.0106902,10)
V6: Removing PWL point (0.0107,0)
V6: Removing PWL point (0.0107002,10)
V6: Removing PWL point (0.01071,0)
V6: Removing PWL point (0.0107107,10)
V6: Removing PWL point (0.01072,0)
V6: Removing PWL point (0.0107215,10)
V6: Removing PWL point (0.01073,0)
V6: Removing PWL point (0.0107325,10)
V6: Removing PWL point (0.01074,0)
V6: Removing PWL point (0.0107437,10)
V6: Removing PWL point (0.01075,0)
V6: Removing PWL point (0.0107549,10)
V6: Removing PWL point (0.01076,0)
V6: Removing PWL point (0.0107662,10)
V6: Removing PWL point (0.01077,0)
V6: Removing PWL point (0.0107773,10)
V6: Removing PWL point (0.01078,0)
V6: Removing PWL point (0.0107883,10)
V6: Removing PWL point (0.01079,0)
V6: Removing PWL point (0.0107991,10)
V6: Removing PWL point (0.0108,0)
V6: Removing PWL point (0.0108097,10)
V6: Removing PWL point (0.01081,0)
V6: Removing PWL point (0.0108197,10)
V6: Removing PWL point (0.01082,0)
V6: Removing PWL point (0.0108297,10)
[...]
V3: Removing PWL point (0.0272,0)
V3: Removing PWL point (0.0272002,10)
V3: Removing PWL point (0.02721,0)
V3: Removing PWL point (0.0272107,10)
V3: Removing PWL point (0.02722,0)
V3: Removing PWL point (0.0272215,10)
V3: Removing PWL point (0.02723,0)
V3: Removing PWL point (0.0272325,10)
V3: Removing PWL point (0.02724,0)
V3: Removing PWL point (0.0272437,10)
V3: Removing PWL point (0.02725,0)
V3: Removing PWL point (0.0272549,10)
V3: Removing PWL point (0.02726,0)
V3: Removing PWL point (0.0272662,10)
V3: Removing PWL point (0.02727,0)
V3: Removing PWL point (0.0272773,10)
V3: Removing PWL point (0.02728,0)
V3: Removing PWL point (0.0272883,10)
V3: Removing PWL point (0.02729,0)
V3: Removing PWL point (0.0272991,10)
V3: Removing PWL point (0.0273,0)
V3: Removing PWL point (0.0273097,10)
V3: Removing PWL point (0.02731,0)
V3: Removing PWL point (0.0273197,10)
V3: Removing PWL point (0.02732,0)
V3: Removing PWL point (0.0273297,10)
V3: Removing PWL point (0.02733,0)
V3: Removing PWL point (0.0273394,10)
V3: Removing PWL point (0.02734,0)
V3: Removing PWL point (0.0273488,10)
V3: Removing PWL point (0.02735,0)
V3: Removing PWL point (0.0273579,10)
V3: Removing PWL point (0.02736,0)
V3: Removing PWL point (0.0273668,10)
V3: Removing PWL point (0.02737,0)
V3: Removing PWL point (0.0273755,10)
V3: Removing PWL point (0.02738,0)
V3: Removing PWL point (0.0273843,10)
V3: Removing PWL point (0.02739,0)
V3: Removing PWL point (0.0273931,10)
V3: Removing PWL point (0.0274,0)
V3: Removing PWL point (0.027402,10)
V3: Removing PWL point (0.02741,0)
V3: Removing PWL point (0.0274111,10)
V3: Removing PWL point (0.02742,0)
V3: Removing PWL point (0.0274204,10)
V3: Removing PWL point (0.02743,0)
V3: Removing PWL point (0.0274302,10)
V3: Removing PWL point (0.02744,0)
V3: Removing PWL point (0.0274402,10)
V3: Removing PWL point (0.02745,0)
V3: Removing PWL point (0.0274502,10)
V3: Removing PWL point (0.02746,0)
V3: Removing PWL point (0.0274607,10)
V3: Removing PWL point (0.02747,0)
V3: Removing PWL point (0.0274715,10)
V3: Removing PWL point (0.02748,0)
V3: Removing PWL point (0.0274825,10)
V3: Removing PWL point (0.02749,0)
V3: Removing PWL point (0.0274937,10)
V3: Removing PWL point (0.0275,0)
V3: Removing PWL point (0.0275049,10)
V3: Removing PWL point (0.02751,0)
V3: Removing PWL point (0.0275162,10)
V3: Removing PWL point (0.02752,0)
V3: Removing PWL point (0.0275273,10)
V3: Removing PWL point (0.02753,0)
V3: Removing PWL point (0.0275383,10)
V3: Removing PWL point (0.02754,0)
V3: Removing PWL point (0.0275491,10)
V3: Removing PWL point (0.02755,0)
V3: Removing PWL point (0.0275597,10)
V3: Removing PWL point (0.02756,0)
V3: Removing PWL point (0.0275697,10)
V3: Removing PWL point (0.02757,0)
V3: Removing PWL point (0.0275797,10)
V3: Removing PWL point (0.02758,0)
V3: Removing PWL point (0.0275894,10)
V3: Removing PWL point (0.02759,0)
V3: Removing PWL point (0.0275988,10)
V3: Removing PWL point (0.0276,0)
V3: Removing PWL point (0.0276079,10)
V3: Removing PWL point (0.02761,0)
V3: Removing PWL point (0.0276168,10)
V3: Removing PWL point (0.02762,0)
V3: Removing PWL point (0.0276255,10)
V3: Removing PWL point (0.02763,0)
V3: Removing PWL point (0.0276343,10)
V3: Removing PWL point (0.02764,0)
V3: Removing PWL point (0.0276431,10)
V3: Removing PWL point (0.02765,0)
V3: Removing PWL point (0.027652,10)
V3: Removing PWL point (0.02766,0)
V3: Removing PWL point (0.0276611,10)
V3: Removing PWL point (0.02767,0)
V3: Removing PWL point (0.0276704,10)
V3: Removing PWL point (0.02768,0)
V3: Removing PWL point (0.0276802,10)
V3: Removing PWL point (0.02769,0)
V3: Removing PWL point (0.0276902,10)
V3: Removing PWL point (0.0277,0)
V3: Removing PWL point (0.0277002,10)
V3: Removing PWL point (0.02771,0)
V3: Removing PWL point (0.0277107,10)
V3: Removing PWL point (0.02772,0)
V3: Removing PWL point (0.0277215,10)
V3: Removing PWL point (0.02773,0)
V3: Removing PWL point (0.0277325,10)
V3: Removing PWL point (0.02774,0)
V3: Removing PWL point (0.0277437,10)
V3: Removing PWL point (0.02775,0)
V3: Removing PWL point (0.0277549,10)
V3: Removing PWL point (0.02776,0)
V3: Removing PWL point (0.0277662,10)
V3: Removing PWL point (0.02777,0)
V3: Removing PWL point (0.0277773,10)
V3: Removing PWL point (0.02778,0)
V3: Removing PWL point (0.0277883,10)
V3: Removing PWL point (0.02779,0)
V3: Removing PWL point (0.0277991,10)
V3: Removing PWL point (0.0278,0)
V3: Removing PWL point (0.0278097,10)
V3: Removing PWL point (0.02781,0)
V3: Removing PWL point (0.0278197,10)
V3: Removing PWL point (0.02782,0)
V3: Removing PWL point (0.0278297,10)
V3: Removing PWL point (0.02783,0)
V3: Removing PWL point (0.0278394,10)
V3: Removing PWL point (0.02784,0)
V3: Removing PWL point (0.0278488,10)
V3: Removing PWL point (0.02785,0)
V3: Removing PWL point (0.0278579,10)
V3: Removing PWL point (0.02786,0)
V3: Removing PWL point (0.0278668,10)
V3: Removing PWL point (0.02787,0)
V3: Removing PWL point (0.0278755,10)
V3: Removing PWL point (0.02788,0)
V3: Removing PWL point (0.0278843,10)
V3: Removing PWL point (0.02789,0)
V3: Removing PWL point (0.0278931,10)
V3: Removing PWL point (0.0279,0)
V3: Removing PWL point (0.027902,10)
V3: Removing PWL point (0.02791,0)
V3: Removing PWL point (0.0279111,10)
V3: Removing PWL point (0.02792,0)
V3: Removing PWL point (0.0279204,10)
V3: Removing PWL point (0.02793,0)
V3: Removing PWL point (0.0279302,10)
V3: Removing PWL point (0.02794,0)
V3: Removing PWL point (0.0279402,10)
V3: Removing PWL point (0.02795,0)
V3: Removing PWL point (0.0279502,10)
V3: Removing PWL point (0.02796,0)
V3: Removing PWL point (0.0279607,10)
V3: Removing PWL point (0.02797,0)
V3: Removing PWL point (0.0279715,10)
V3: Removing PWL point (0.02798,0)
V3: Removing PWL point (0.0279825,10)
V3: Removing PWL point (0.02799,0)
V3: Removing PWL point (0.0279937,10)
V3: Removing PWL point (0.028,0)
V3: Removing PWL point (0.0280049,10)
V3: Removing PWL point (0.02801,0)
V3: Removing PWL point (0.0280162,10)
V3: Removing PWL point (0.02802,0)
V3: Removing PWL point (0.0280273,10)
V3: Removing PWL point (0.02803,0)
V3: Removing PWL point (0.0280383,10)
V3: Removing PWL point (0.02804,0)
V3: Removing PWL point (0.0280491,10)
V3: Removing PWL point (0.02805,0)
V3: Removing PWL point (0.0280597,10)
V3: Removing PWL point (0.02806,0)
V3: Removing PWL point (0.0280697,10)
V3: Removing PWL point (0.02807,0)
V3: Removing PWL point (0.0280797,10)
V3: Removing PWL point (0.02808,0)
V3: Removing PWL point (0.0280894,10)
V3: Removing PWL point (0.02809,0)
V3: Removing PWL point (0.0280988,10)
V3: Removing PWL point (0.0281,0)
V3: Removing PWL point (0.0281079,10)
V3: Removing PWL point (0.02811,0)
V3: Removing PWL point (0.0281168,10)
V3: Removing PWL point (0.02812,0)
V3: Removing PWL point (0.0281255,10)
V3: Removing PWL point (0.02813,0)
V3: Removing PWL point (0.0281343,10)
V3: Removing PWL point (0.02814,0)
V3: Removing PWL point (0.0281431,10)
V3: Removing PWL point (0.02815,0)
V3: Removing PWL point (0.028152,10)
V3: Removing PWL point (0.02816,0)
V3: Removing PWL point (0.0281611,10)
V3: Removing PWL point (0.02817,0)
V3: Removing PWL point (0.0281704,10)
V3: Removing PWL point (0.02818,0)
V3: Removing PWL point (0.0281802,10)
V3: Removing PWL point (0.02819,0)
V3: Removing PWL point (0.0281902,10)
V3: Removing PWL point (0.0282,0)
V3: Removing PWL point (0.0282002,10)
V3: Removing PWL point (0.02821,0)
V3: Removing PWL point (0.0282107,10)
V3: Removing PWL point (0.02822,0)
V3: Removing PWL point (0.0282215,10)
V3: Removing PWL point (0.02823,0)
V3: Removing PWL point (0.0282325,10)
V3: Removing PWL point (0.02824,0)
V3: Removing PWL point (0.0282437,10)
V3: Removing PWL point (0.02825,0)
V3: Removing PWL point (0.0282549,10)
V3: Removing PWL point (0.02826,0)
V3: Removing PWL point (0.0282662,10)
V3: Removing PWL point (0.02827,0)
V3: Removing PWL point (0.0282773,10)
V3: Removing PWL point (0.02828,0)
V3: Removing PWL point (0.0282883,10)
V3: Removing PWL point (0.02829,0)
V3: Removing PWL point (0.0282991,10)
V3: Removing PWL point (0.0283,0)
V3: Removing PWL point (0.0283097,10)
V3: Removing PWL point (0.02831,0)
V3: Removing PWL point (0.0283197,10)
V3: Removing PWL point (0.02832,0)
V3: Removing PWL point (0.0283297,10)
V3: Removing PWL point (0.02833,0)
V3: Removing PWL point (0.0283394,10)
V3: Removing PWL point (0.02834,0)
V3: Removing PWL point (0.0283488,10)
V3: Removing PWL point (0.02835,0)
V3: Removing PWL point (0.0283579,10)
V3: Removing PWL point (0.02836,0)
V3: Removing PWL point (0.0283668,10)
V3: Removing PWL point (0.02837,0)
V3: Removing PWL point (0.0283755,10)
V3: Removing PWL point (0.02838,0)
V3: Removing PWL point (0.0283843,10)
V3: Removing PWL point (0.02839,0)
V3: Removing PWL point (0.0283931,10)
V3: Removing PWL point (0.0284,0)
V3: Removing PWL point (0.028402,10)
V3: Removing PWL point (0.02841,0)
V3: Removing PWL point (0.0284111,10)
V3: Removing PWL point (0.02842,0)
V3: Removing PWL point (0.0284204,10)
V3: Removing PWL point (0.02843,0)
V3: Removing PWL point (0.0284302,10)
V3: Removing PWL point (0.02844,0)
V3: Removing PWL point (0.0284402,10)
V3: Removing PWL point (0.02845,0)
V3: Removing PWL point (0.0284502,10)
V3: Removing PWL point (0.02846,0)
V3: Removing PWL point (0.0284607,10)
V3: Removing PWL point (0.02847,0)
V3: Removing PWL point (0.0284715,10)
V3: Removing PWL point (0.02848,0)
V3: Removing PWL point (0.0284825,10)
V3: Removing PWL point (0.02849,0)
V3: Removing PWL point (0.0284937,10)
V3: Removing PWL point (0.0285,0)
V3: Removing PWL point (0.0285049,10)
V3: Removing PWL point (0.02851,0)
V3: Removing PWL point (0.0285162,10)
V3: Removing PWL point (0.02852,0)
V3: Removing PWL point (0.0285273,10)
V3: Removing PWL point (0.02853,0)
V3: Removing PWL point (0.0285383,10)
V3: Removing PWL point (0.02854,0)
V3: Removing PWL point (0.0285491,10)
V3: Removing PWL point (0.02855,0)
V3: Removing PWL point (0.0285597,10)
V3: Removing PWL point (0.02856,0)
V3: Removing PWL point (0.0285697,10)
V3: Removing PWL point (0.02857,0)
V3: Removing PWL point (0.0285797,10)
V3: Removing PWL point (0.02858,0)
V3: Removing PWL point (0.0285894,10)
V3: Removing PWL point (0.02859,0)
V3: Removing PWL point (0.0285988,10)
V3: Removing PWL point (0.0286,0)
V3: Removing PWL point (0.0286079,10)
V3: Removing PWL point (0.02861,0)
V3: Removing PWL point (0.0286168,10)
V3: Removing PWL point (0.02862,0)
V3: Removing PWL point (0.0286255,10)
V3: Removing PWL point (0.02863,0)
V3: Removing PWL point (0.0286343,10)
V3: Removing PWL point (0.02864,0)
V3: Removing PWL point (0.0286431,10)
V3: Removing PWL point (0.02865,0)
V3: Removing PWL point (0.028652,10)
V3: Removing PWL point (0.02866,0)
V3: Removing PWL point (0.0286611,10)
V3: Removing PWL point (0.02867,0)
V3: Removing PWL point (0.0286704,10)
V3: Removing PWL point (0.02868,0)
V3: Removing PWL point (0.0286802,10)
V3: Removing PWL point (0.02869,0)
V3: Removing PWL point (0.0286902,10)
V3: Removing PWL point (0.0287,0)
V3: Removing PWL point (0.0287002,10)
V3: Removing PWL point (0.02871,0)
V3: Removing PWL point (0.0287107,10)
V3: Removing PWL point (0.02872,0)
V3: Removing PWL point (0.0287215,10)
V3: Removing PWL point (0.02873,0)
V3: Removing PWL point (0.0287325,10)
V3: Removing PWL point (0.02874,0)
V3: Removing PWL point (0.0287437,10)
V3: Removing PWL point (0.02875,0)
V3: Removing PWL point (0.0287549,10)
V3: Removing PWL point (0.02876,0)
V3: Removing PWL point (0.0287662,10)
V3: Removing PWL point (0.02877,0)
V3: Removing PWL point (0.0287773,10)
V3: Removing PWL point (0.02878,0)
V3: Removing PWL point (0.0287883,10)
V3: Removing PWL point (0.02879,0)
V3: Removing PWL point (0.0287991,10)
V3: Removing PWL point (0.0288,0)
V3: Removing PWL point (0.0288097,10)
V3: Removing PWL point (0.02881,0)
V3: Removing PWL point (0.0288197,10)
V3: Removing PWL point (0.02882,0)
V3: Removing PWL point (0.0288297,10)
V3: Removing PWL point (0.02883,0)
V3: Removing PWL point (0.0288394,10)
V3: Removing PWL point (0.02884,0)
V3: Removing PWL point (0.0288488,10)
V3: Removing PWL point (0.02885,0)
V3: Removing PWL point (0.0288579,10)
V3: Removing PWL point (0.02886,0)
V3: Removing PWL point (0.0288668,10)
V3: Removing PWL point (0.02887,0)
V3: Removing PWL point (0.0288755,10)
V3: Removing PWL point (0.02888,0)
V3: Removing PWL point (0.0288843,10)
V3: Removing PWL point (0.02889,0)
V3: Removing PWL point (0.0288931,10)
V3: Removing PWL point (0.0289,0)
V3: Removing PWL point (0.028902,10)
V3: Removing PWL point (0.02891,0)
V3: Removing PWL point (0.0289111,10)
V3: Removing PWL point (0.02892,0)
V3: Removing PWL point (0.0289204,10)
V3: Removing PWL point (0.02893,0)
V3: Removing PWL point (0.0289302,10)
V3: Removing PWL point (0.02894,0)
V3: Removing PWL point (0.0289402,10)
V3: Removing PWL point (0.02895,0)
V3: Removing PWL point (0.0289502,10)
V3: Removing PWL point (0.02896,0)
V3: Removing PWL point (0.0289607,10)
V3: Removing PWL point (0.02897,0)
V3: Removing PWL point (0.0289715,10)
V3: Removing PWL point (0.02898,0)
V3: Removing PWL point (0.0289825,10)
V3: Removing PWL point (0.02899,0)
V3: Removing PWL point (0.0289937,10)
V3: Removing PWL point (0.029,0)
V3: Removing PWL point (0.0290049,10)
V3: Removing PWL point (0.02901,0)
V3: Removing PWL point (0.0290162,10)
V3: Removing PWL point (0.02902,0)
V3: Removing PWL point (0.0290273,10)
V3: Removing PWL point (0.02903,0)
V3: Removing PWL point (0.0290383,10)
V3: Removing PWL point (0.02904,0)
V3: Removing PWL point (0.0290491,10)
V3: Removing PWL point (0.02905,0)
V3: Removing PWL point (0.0290597,10)
V3: Removing PWL point (0.02906,0)
V3: Removing PWL point (0.0290697,10)
V3: Removing PWL point (0.02907,0)
V3: Removing PWL point (0.0290797,10)
V3: Removing PWL point (0.02908,0)
V3: Removing PWL point (0.0290894,10)
V3: Removing PWL point (0.02909,0)
V3: Removing PWL point (0.0290988,10)
V3: Removing PWL point (0.0291,0)
V3: Removing PWL point (0.0291079,10)
V3: Removing PWL point (0.02911,0)
V3: Removing PWL point (0.0291168,10)
V3: Removing PWL point (0.02912,0)
V3: Removing PWL point (0.0291255,10)
V3: Removing PWL point (0.02913,0)
V3: Removing PWL point (0.0291343,10)
V3: Removing PWL point (0.02914,0)
V3: Removing PWL point (0.0291431,10)
V3: Removing PWL point (0.02915,0)
V3: Removing PWL point (0.029152,10)
V3: Removing PWL point (0.02916,0)
V3: Removing PWL point (0.0291611,10)
V3: Removing PWL point (0.02917,0)
V3: Removing PWL point (0.0291704,10)
V3: Removing PWL point (0.02918,0)
V3: Removing PWL point (0.0291802,10)
V3: Removing PWL point (0.02919,0)
V3: Removing PWL point (0.0291902,10)
V3: Removing PWL point (0.0292,0)
V3: Removing PWL point (0.0292002,10)
V3: Removing PWL point (0.02921,0)
V3: Removing PWL point (0.0292107,10)
V3: Removing PWL point (0.02922,0)
V3: Removing PWL point (0.0292215,10)
V3: Removing PWL point (0.02923,0)
V3: Removing PWL point (0.0292325,10)
V3: Removing PWL point (0.02924,0)
V3: Removing PWL point (0.0292437,10)
V3: Removing PWL point (0.02925,0)
V3: Removing PWL point (0.0292549,10)
V3: Removing PWL point (0.02926,0)
V3: Removing PWL point (0.0292662,10)
V3: Removing PWL point (0.02927,0)
V3: Removing PWL point (0.0292773,10)
V3: Removing PWL point (0.02928,0)
V3: Removing PWL point (0.0292883,10)
V3: Removing PWL point (0.02929,0)
V3: Removing PWL point (0.0292991,10)
V3: Removing PWL point (0.0293,0)
V3: Removing PWL point (0.0293097,10)
V3: Removing PWL point (0.02931,0)
V3: Removing PWL point (0.0293197,10)
V3: Removing PWL point (0.02932,0)
V3: Removing PWL point (0.0293297,10)
V3: Removing PWL point (0.02933,0)
V3: Removing PWL point (0.0293394,10)
V3: Removing PWL point (0.02934,0)
V3: Removing PWL point (0.0293488,10)
V3: Removing PWL point (0.02935,0)
V3: Removing PWL point (0.0293579,10)
V3: Removing PWL point (0.02936,0)
V3: Removing PWL point (0.0293668,10)
V3: Removing PWL point (0.02937,0)
V3: Removing PWL point (0.0293755,10)
V3: Removing PWL point (0.02938,0)
V3: Removing PWL point (0.0293843,10)
V3: Removing PWL point (0.02939,0)
V3: Removing PWL point (0.0293931,10)
V3: Removing PWL point (0.0294,0)
V3: Removing PWL point (0.029402,10)
V3: Removing PWL point (0.02941,0)
V3: Removing PWL point (0.0294111,10)
V3: Removing PWL point (0.02942,0)
V3: Removing PWL point (0.0294204,10)
V3: Removing PWL point (0.02943,0)
V3: Removing PWL point (0.0294302,10)
V3: Removing PWL point (0.02944,0)
V3: Removing PWL point (0.0294402,10)
V3: Removing PWL point (0.02945,0)
V3: Removing PWL point (0.0294502,10)
V3: Removing PWL point (0.02946,0)
V3: Removing PWL point (0.0294607,10)
V3: Removing PWL point (0.02947,0)
V3: Removing PWL point (0.0294715,10)
V3: Removing PWL point (0.02948,0)
V3: Removing PWL point (0.0294825,10)
V3: Removing PWL point (0.02949,0)
V3: Removing PWL point (0.0294937,10)
V3: Removing PWL point (0.0295,0)
V3: Removing PWL point (0.0295049,10)
V3: Removing PWL point (0.02951,0)
V3: Removing PWL point (0.0295162,10)
V3: Removing PWL point (0.02952,0)
V3: Removing PWL point (0.0295273,10)
V3: Removing PWL point (0.02953,0)
V3: Removing PWL point (0.0295383,10)
V3: Removing PWL point (0.02954,0)
V3: Removing PWL point (0.0295491,10)
V3: Removing PWL point (0.02955,0)
V3: Removing PWL point (0.0295597,10)
V3: Removing PWL point (0.02956,0)
V3: Removing PWL point (0.0295697,10)
V3: Removing PWL point (0.02957,0)
V3: Removing PWL point (0.0295797,10)
V3: Removing PWL point (0.02958,0)
V3: Removing PWL point (0.0295894,10)
V3: Removing PWL point (0.02959,0)
V3: Removing PWL point (0.0295988,10)
V3: Removing PWL point (0.0296,0)
V3: Removing PWL point (0.0296079,10)
V3: Removing PWL point (0.02961,0)
V3: Removing PWL point (0.0296168,10)
V3: Removing PWL point (0.02962,0)
V3: Removing PWL point (0.0296255,10)
V3: Removing PWL point (0.02963,0)
V3: Removing PWL point (0.0296343,10)
V3: Removing PWL point (0.02964,0)
V3: Removing PWL point (0.0296431,10)
V3: Removing PWL point (0.02965,0)
V3: Removing PWL point (0.029652,10)
V3: Removing PWL point (0.02966,0)
V3: Removing PWL point (0.0296611,10)
V3: Removing PWL point (0.02967,0)
V3: Removing PWL point (0.0296704,10)
V3: Removing PWL point (0.02968,0)
V3: Removing PWL point (0.0296802,10)
V3: Removing PWL point (0.02969,0)
V3: Removing PWL point (0.0296902,10)
V3: Removing PWL point (0.0297,0)
V3: Removing PWL point (0.0297002,10)
V3: Removing PWL point (0.02971,0)
V3: Removing PWL point (0.0297107,10)
V3: Removing PWL point (0.02972,0)
V3: Removing PWL point (0.0297215,10)
V3: Removing PWL point (0.02973,0)
V3: Removing PWL point (0.0297325,10)
V3: Removing PWL point (0.02974,0)
V3: Removing PWL point (0.0297437,10)
V3: Removing PWL point (0.02975,0)
V3: Removing PWL point (0.0297549,10)
V3: Removing PWL point (0.02976,0)
V3: Removing PWL point (0.0297662,10)
V3: Removing PWL point (0.02977,0)
V3: Removing PWL point (0.0297773,10)
V3: Removing PWL point (0.02978,0)
V3: Removing PWL point (0.0297883,10)
V3: Removing PWL point (0.02979,0)
V3: Removing PWL point (0.0297991,10)
V3: Removing PWL point (0.0298,0)
V3: Removing PWL point (0.0298097,10)
V3: Removing PWL point (0.02981,0)
V3: Removing PWL point (0.0298197,10)
V3: Removing PWL point (0.02982,0)
V3: Removing PWL point (0.0298297,10)
V3: Removing PWL point (0.02983,0)
V3: Removing PWL point (0.0298394,10)
V3: Removing PWL point (0.02984,0)
V3: Removing PWL point (0.0298488,10)
V3: Removing PWL point (0.02985,0)
V3: Removing PWL point (0.0298579,10)
V3: Removing PWL point (0.02986,0)
V3: Removing PWL point (0.0298668,10)
V3: Removing PWL point (0.02987,0)
V3: Removing PWL point (0.0298755,10)
V3: Removing PWL point (0.02988,0)
V3: Removing PWL point (0.0298843,10)
.OP point found by inspection.

Date: Mon Oct 28 10:27:04 2019
Total elapsed time: 13.433 seconds.

tnom = 27
temp = 27
method = modified trap
totiter = 1609517
traniter = 1609517
tranpoints = 429269
accept = 322948
rejected = 106321
matrix size = 25
fillins = 16
solver = Normal
Matrix Compiler1: 2.58 KB object code size  1.6/0.9/[0.6]
Matrix Compiler2: 2.32 KB object code size  0.8/1.0/[0.6]

