Stray ".ends" card: .ends
Stray ".ends" card: .ends
Circuit: * C:\Users\gusta\Documents\GitHub\EEL7303\Laboratorios\Projeto - Amplificador Classe D em Ponte H\Simulação\V1.1.0\AmplificadorClasseD-V111.asc

WARNING: Node N013 is floating.
WARNING: Node V_OUT1 is floating.

WARNING: Less than two connections to node N013.  This node is used by M10.
WARNING: Less than two connections to node V_OUT1.  This node is used by C2.
Warning: Pd = 0 is less than W.
Warning: Ps = 0 is less than W.
Warning: Pd = 0 is less than W.
Warning: Ps = 0 is less than W.
Direct Newton iteration failed to find .op point.  (Use ".option noopiter" to skip.)
Starting Gmin stepping
Gmin = 10
Gmin = 1.07374
vernier = 0.5
vernier = 0.25
vernier = 0.125
vernier = 0.0625
Gmin = 1.08884
vernier = 0.03125
vernier = 0.015625
Gmin = 1.03122
vernier = 0.0078125
vernier = 0.0104167
vernier = 0.00520833
Gmin = 1.01988
vernier = 0.00260417
vernier = 0.00347222
Gmin = 1.01305
vernier = 0.00173611
vernier = 0.00231481
vernier = 0.00115741
Gmin = 1.01085
vernier = 0.00154321
vernier = 0.000771604
Gmin = 1.00871
vernier = 0.00102881
vernier = 0.000514403
Gmin = 1.00715
vernier = 0.00068587
vernier = 0.000514403
Gmin = 1.0059
vernier = 0.00068587
vernier = 0.000514402
Gmin = 0
Gmin stepping failed

Starting source stepping with srcstepmethod=0
Source Step = 3.0303%
Source Step = 12.1271%
Source Step = 12.1567%
Source Step = 12.1863%
Source Step = 12.2159%
Source Step = 12.2455%
vernier = 0.00146484
Source Step = 12.2766%
Source Step = 12.321%
Source Step = 12.3654%
Source Step = 12.4097%
Source Step = 12.4541%
Source Step = 12.4985%
vernier = 0.00219727
Source Step = 12.5651%
Source Step = 12.6317%
Source Step = 12.6983%
Source Step = 12.7649%
Source Step = 12.8314%
vernier = 0.0032959
Source Step = 12.928%
Source Step = 13.0279%
Source Step = 13.1277%
Source Step = 13.2276%
Source Step = 13.3275%
vernier = 0.00494385
Source Step = 13.4673%
Source Step = 13.6171%
Source Step = 13.7669%
Source Step = 13.9168%
Source Step = 14.0666%
vernier = 0.00741577
Source Step = 14.2688%
Source Step = 14.4935%
Source Step = 14.7183%
Source Step = 14.943%
Source Step = 15.1677%
vernier = 0.0111237
Source Step = 15.4598%
Source Step = 15.7969%
Source Step = 16.134%
Source Step = 16.4711%
Source Step = 16.8082%
vernier = 0.0166855
Source Step = 17.2295%
Source Step = 17.7351%
Source Step = 18.2407%
Source Step = 18.7464%
Source Step = 19.252%
vernier = 0.0250282
Source Step = 19.8587%
Source Step = 20.6172%
Source Step = 21.3756%
Source Step = 22.134%
Source Step = 22.8925%
vernier = 0.0375423
Source Step = 23.7647%
Source Step = 23.9709%
Source Step = 24.042%
Source Step = 24.1131%
Source Step = 24.1842%
Source Step = 24.2553%
vernier = 0.00351959
Source Step = 24.3335%
Source Step = 24.4401%
Source Step = 24.5468%
Source Step = 24.6534%
Source Step = 24.7601%
vernier = 0.00527939
Source Step = 24.8721%
Source Step = 25.0321%
Source Step = 25.192%
Source Step = 25.352%
Source Step = 25.388%
Source Step = 25.428%
Source Step = 25.468%
Source Step = 25.508%
Source Step = 25.548%
vernier = 0.00197977
Source Step = 25.596%
Source Step = 25.656%
Source Step = 25.716%
Source Step = 25.776%
Source Step = 25.836%
vernier = 0.00296966
Source Step = 25.905%
Source Step = 25.995%
Source Step = 26.0849%
Source Step = 26.1749%
Source Step = 26.2649%
vernier = 0.00445449
Source Step = 26.3639%
vernier = 0.00111362
Source Step = 26.3842%
Source Step = 26.4179%
Source Step = 26.4517%
Source Step = 26.4854%
Source Step = 26.5191%
vernier = 0.00167043
Source Step = 26.563%
Source Step = 26.6136%
Source Step = 26.6643%
Source Step = 26.7149%
Source Step = 26.7655%
vernier = 0.00250565
Source Step = 26.8288%
Source Step = 26.9047%
Source Step = 26.9806%
Source Step = 27.0566%
Source Step = 27.1325%
vernier = 0.00375847
Source Step = 27.2236%
Source Step = 27.3375%
Source Step = 27.4514%
Source Step = 27.5653%
Source Step = 27.6165%
Source Step = 27.645%
Source Step = 27.6735%
Source Step = 27.7019%
Source Step = 27.7304%
vernier = 0.00140943
Source Step = 27.7617%
Source Step = 27.8044%
Source Step = 27.8472%
Source Step = 27.8899%
Source Step = 27.9326%
vernier = 0.00211414
Source Step = 27.9774%
Source Step = 28.0415%
Source Step = 28.1056%
Source Step = 28.1696%
Source Step = 28.2337%
Source Step = 28.2977%
vernier = 0.00317121
Source Step = 28.3938%
Source Step = 28.4899%
Source Step = 28.586%
Source Step = 28.6821%
Source Step = 28.7782%
vernier = 0.00475682
Source Step = 28.9176%
Source Step = 29.0617%
Source Step = 29.2059%
Source Step = 29.35%
Source Step = 29.4942%
vernier = 0.00713523
Source Step = 29.696%
Source Step = 29.9122%
Source Step = 30.1284%
Source Step = 30.3446%
Source Step = 30.5608%
vernier = 0.0107028
Source Step = 30.8527%
Source Step = 31.1771%
Source Step = 31.323%
Source Step = 31.4041%
Source Step = 31.4852%
Source Step = 31.5663%
Source Step = 31.6473%
vernier = 0.00401357
Source Step = 31.7365%
Source Step = 31.8582%
Source Step = 31.9798%
Source Step = 32.1014%
Source Step = 32.223%
vernier = 0.00602035
Source Step = 32.3507%
Source Step = 32.5332%
Source Step = 32.7156%
Source Step = 32.898%
Source Step = 33.0805%
Source Step = 33.2629%
vernier = 0.00903052
Source Step = 33.5366%
Source Step = 33.8102%
Source Step = 34.0839%
Source Step = 34.3575%
Source Step = 34.6312%
vernier = 0.0135458
Source Step = 35.028%
Source Step = 35.4384%
Source Step = 35.8489%
Source Step = 36.2594%
Source Step = 36.6699%
vernier = 0.0203187
Source Step = 37.2445%
Source Step = 37.8603%
Source Step = 38.476%
Source Step = 39.0917%
Source Step = 39.7074%
vernier = 0.030478
Source Step = 40.5386%
Source Step = 41.4622%
Source Step = 42.3858%
Source Step = 43.3094%
Source Step = 44.2329%
vernier = 0.045717
Source Step = 45.4336%
Source Step = 46.8189%
Source Step = 48.2043%
Source Step = 49.5897%
Source Step = 50.975%
vernier = 0.0685755
Source Step = 52.7067%
Source Step = 54.7848%
Source Step = 56.8628%
Source Step = 58.9409%
Source Step = 61.0189%
vernier = 0.102863
Source Step = 63.5126%
Source Step = 66.6297%
Source Step = 69.7467%
Source Step = 72.8638%
Source Step = 75.9809%
vernier = 0.154295
Source Step = 79.5655%
Source Step = 84.2411%
Source Step = 88.9167%
Source Step = 93.5923%
Source Step = 94.564%
Source Step = 94.637%
Source Step = 94.7101%
Source Step = 94.7831%
Source Step = 94.8562%
Source Step = 94.9292%
Source Step = 95.0023%
Source Step = 95.0753%
Source stepping aborted.
Starting source stepping with srcstepmethod=1
Source Step = 3.0303%
Source Step = 33.3333%
Source Step = 63.6364%
Source Step = 93.9394%
Source Step = 96.9815%
Source Step = 97.0111%
Source Step = 97.0407%
Source Step = 97.0703%
Source Step = 97.0999%
Source Step = 97.1295%
Source Step = 97.1591%
Source Step = 97.1887%
Source Step = 97.2183%
Source Step = 97.2479%
Source Step = 97.2775%
Source Step = 97.3071%
Source Step = 97.3366%
Source Step = 97.3662%
Source Step = 97.3958%
Source Step = 97.4254%
Source Step = 97.455%
Source Step = 97.4846%
Source Step = 97.5142%
Source Step = 97.5438%
Source Step = 97.5734%
Source Step = 97.603%
Source Step = 97.6326%
Source Step = 97.6622%
Source Step = 97.6918%
Source Step = 97.7214%
Source Step = 97.7509%
Source Step = 97.7805%
Source Step = 97.8101%
Source Step = 97.8397%
Source Step = 97.8693%
Source stepping aborted.
Pseudo Transient failed in finding the operating point at 73.3319 µs.
Trouble finding operating point....skipping operating point for Transient analysis.
Changing Tseed to 4.88281e-009
Changing Tseed to 4.88281e-011
Changing Tseed to 4.88281e-008
Changing Tseed to 4.88281e-012
Changing Tseed to 4.88281e-007
Changing Tseed to 4.88281e-013
Changing Tseed to 4.88281e-006
Changing Tseed to 4.88281e-014
Heightened Def Con from 3.50593e-007 to 3.51093e-007
Heightened Def Con from 2.08388e-006 to 2.08988e-006
Heightened Def Con from 3.64881e-006 to 3.64931e-006
Heightened Def Con from 5.08385e-006 to 5.08435e-006
Heightened Def Con from 6.70517e-006 to 6.70567e-006
Heightened Def Con from 8.08476e-006 to 8.08526e-006
Heightened Def Con from 9.75928e-006 to 9.75978e-006
Heightened Def Con from 1.10858e-005 to 1.10863e-005
Heightened Def Con from 1.28131e-005 to 1.28136e-005
Heightened Def Con from 1.40877e-005 to 1.40882e-005
Heightened Def Con from 1.58665e-005 to 1.5867e-005
Heightened Def Con from 1.70903e-005 to 1.70908e-005
Heightened Def Con from 1.89183e-005 to 1.89188e-005
Heightened Def Con from 2.00951e-005 to 2.00956e-005
Heightened Def Con from 2.19695e-005 to 2.197e-005
Heightened Def Con from 2.31016e-005 to 2.31021e-005
Heightened Def Con from 2.50189e-005 to 2.50194e-005
Heightened Def Con from 2.61107e-005 to 2.61112e-005
Heightened Def Con from 2.80659e-005 to 2.80664e-005
Heightened Def Con from 2.91202e-005 to 2.91262e-005
Heightened Def Con from 3.11102e-005 to 3.11107e-005
Heightened Def Con from 3.21327e-005 to 3.21332e-005
Heightened Def Con from 3.41532e-005 to 3.41537e-005
Heightened Def Con from 3.51476e-005 to 3.51481e-005
Heightened Def Con from 3.71945e-005 to 3.7195e-005
Heightened Def Con from 3.81658e-005 to 3.81663e-005
Heightened Def Con from 4.02325e-005 to 4.0233e-005
Heightened Def Con from 4.11854e-005 to 4.11859e-005
Heightened Def Con from 4.32701e-005 to 4.32706e-005
Heightened Def Con from 4.4209e-005 to 4.42095e-005
Heightened Def Con from 4.63042e-005 to 4.63047e-005
Heightened Def Con from 4.72345e-005 to 4.7235e-005
Heightened Def Con from 4.93353e-005 to 4.93358e-005
Heightened Def Con from 5.02629e-005 to 5.02634e-005
Heightened Def Con from 5.23647e-005 to 5.23652e-005
Heightened Def Con from 5.32941e-005 to 5.33011e-005
Heightened Def Con from 5.53892e-005 to 5.53897e-005
Heightened Def Con from 5.63264e-005 to 5.63269e-005
Heightened Def Con from 5.84128e-005 to 5.84133e-005
Heightened Def Con from 5.93629e-005 to 5.93634e-005
Heightened Def Con from 6.14338e-005 to 6.14343e-005
Heightened Def Con from 6.24031e-005 to 6.24036e-005
Heightened Def Con from 6.44533e-005 to 6.44538e-005
Heightened Def Con from 6.54439e-005 to 6.54444e-005
Heightened Def Con from 6.74695e-005 to 6.747e-005
Heightened Def Con from 6.84879e-005 to 6.84884e-005
Heightened Def Con from 7.04829e-005 to 7.04834e-005
Heightened Def Con from 7.15329e-005 to 7.15334e-005
Heightened Def Con from 7.3494e-005 to 7.34945e-005
Heightened Def Con from 7.45807e-005 to 7.45812e-005
Heightened Def Con from 7.65032e-005 to 7.65037e-005
Heightened Def Con from 7.76295e-005 to 7.763e-005
Heightened Def Con from 7.95095e-005 to 7.951e-005
Heightened Def Con from 8.06801e-005 to 8.06806e-005
Heightened Def Con from 8.25145e-005 to 8.2515e-005
Heightened Def Con from 8.37314e-005 to 8.37319e-005
Heightened Def Con from 8.55174e-005 to 8.55179e-005
Heightened Def Con from 8.67845e-005 to 8.67905e-005
Heightened Def Con from 8.85209e-005 to 8.85214e-005
Heightened Def Con from 8.98404e-005 to 8.98464e-005
Heightened Def Con from 9.15232e-005 to 9.15237e-005
Heightened Def Con from 9.28954e-005 to 9.28959e-005
Heightened Def Con from 9.45249e-005 to 9.45254e-005
Heightened Def Con from 9.59526e-005 to 9.59531e-005
Heightened Def Con from 9.75248e-005 to 9.75253e-005
Heightened Def Con from 9.90078e-005 to 9.90083e-005
Heightened Def Con from 0.000100524 to 0.000100525
Heightened Def Con from 0.000102065 to 0.000102065
Heightened Def Con from 0.000103526 to 0.000103526
Heightened Def Con from 0.00010512 to 0.000105121
Heightened Def Con from 0.000106525 to 0.000106526
Heightened Def Con from 0.000108175 to 0.000108176
Heightened Def Con from 0.000109526 to 0.000109527
Heightened Def Con from 0.00011123 to 0.000111231
Heightened Def Con from 0.000112528 to 0.000112528
Heightened Def Con from 0.000114282 to 0.000114283
Heightened Def Con from 0.000115528 to 0.000115529
Heightened Def Con from 0.000117333 to 0.000117333
Heightened Def Con from 0.00011853 to 0.000118531
Heightened Def Con from 0.000120384 to 0.000120385
Heightened Def Con from 0.000121535 to 0.000121536
Heightened Def Con from 0.000123433 to 0.000123434
Heightened Def Con from 0.000124543 to 0.000124544
Heightened Def Con from 0.000126481 to 0.000126481
Heightened Def Con from 0.00012755 to 0.000127551
Heightened Def Con from 0.000129526 to 0.000129527
Heightened Def Con from 0.000130561 to 0.000130562
Heightened Def Con from 0.00013257 to 0.000132571
Heightened Def Con from 0.000133575 to 0.000133575
Heightened Def Con from 0.000135613 to 0.000135613
Heightened Def Con from 0.000136591 to 0.000136591
Heightened Def Con from 0.000138652 to 0.000138652
Heightened Def Con from 0.000139609 to 0.000139609
Heightened Def Con from 0.000141689 to 0.00014169
Heightened Def Con from 0.000142629 to 0.00014263
Heightened Def Con from 0.000144723 to 0.000144724
Heightened Def Con from 0.000145652 to 0.000145653
Heightened Def Con from 0.000147755 to 0.000147756
Heightened Def Con from 0.000148679 to 0.000148679
Heightened Def Con from 0.000150784 to 0.000150785
Heightened Def Con from 0.000151707 to 0.000151708
Heightened Def Con from 0.00015381 to 0.00015381
Heightened Def Con from 0.000154738 to 0.000154739
Heightened Def Con from 0.000156833 to 0.000156834
Heightened Def Con from 0.000157772 to 0.000157772
Heightened Def Con from 0.000159854 to 0.000159855
Heightened Def Con from 0.000160808 to 0.000160808
Heightened Def Con from 0.000162873 to 0.000162879
Heightened Def Con from 0.000163847 to 0.000163848
Heightened Def Con from 0.000166889 to 0.00016689
Heightened Def Con from 0.000169933 to 0.000169933
Heightened Def Con from 0.000172978 to 0.000172979
Heightened Def Con from 0.000174926 to 0.000174926
Heightened Def Con from 0.000176027 to 0.000176028
Heightened Def Con from 0.000177933 to 0.000177933
Heightened Def Con from 0.000179076 to 0.000179077
Heightened Def Con from 0.000180938 to 0.000180939
Heightened Def Con from 0.000182128 to 0.000182128
Heightened Def Con from 0.000183943 to 0.000183943
Heightened Def Con from 0.000185181 to 0.000185181
Heightened Def Con from 0.000186947 to 0.000186948
Heightened Def Con from 0.000188235 to 0.000188235
Heightened Def Con from 0.000189948 to 0.000189949
Heightened Def Con from 0.000191289 to 0.00019129
Heightened Def Con from 0.00019295 to 0.00019295
Heightened Def Con from 0.000194346 to 0.000194346
Heightened Def Con from 0.000195951 to 0.000195951
Heightened Def Con from 0.000197401 to 0.000197402
Heightened Def Con from 0.000198951 to 0.000198952
Heightened Def Con from 0.000200458 to 0.000200459
Heightened Def Con from 0.000201952 to 0.000201953
Heightened Def Con from 0.000203515 to 0.000203515
Heightened Def Con from 0.000204953 to 0.000204954
Heightened Def Con from 0.000206572 to 0.000206572
Heightened Def Con from 0.000207954 to 0.00020796
Heightened Def Con from 0.000209627 to 0.000209628
Heightened Def Con from 0.000210956 to 0.000210956
Heightened Def Con from 0.000212682 to 0.000212682
Heightened Def Con from 0.000213959 to 0.000213959
Heightened Def Con from 0.000215737 to 0.000215737
Heightened Def Con from 0.000216963 to 0.000216964
Heightened Def Con from 0.000218789 to 0.000218789
Heightened Def Con from 0.000219968 to 0.000219968
Heightened Def Con from 0.000221839 to 0.00022184
Heightened Def Con from 0.000222974 to 0.000222974
Heightened Def Con from 0.000224889 to 0.000224889
Heightened Def Con from 0.000225982 to 0.000225983
Heightened Def Con from 0.000227937 to 0.000227938
Heightened Def Con from 0.000228993 to 0.000228993
Heightened Def Con from 0.000230981 to 0.000230982
Heightened Def Con from 0.000232005 to 0.000232005
Heightened Def Con from 0.000234025 to 0.000234025
Heightened Def Con from 0.00023502 to 0.000235021
Heightened Def Con from 0.000237066 to 0.000237067
Heightened Def Con from 0.000238038 to 0.000238039
Heightened Def Con from 0.000240106 to 0.000240106
Heightened Def Con from 0.000241059 to 0.00024106
Heightened Def Con from 0.000243143 to 0.000243143
Heightened Def Con from 0.000244082 to 0.000244083
Heightened Def Con from 0.000246177 to 0.000246178
Heightened Def Con from 0.000247108 to 0.000247108
Heightened Def Con from 0.000249208 to 0.000249208
Heightened Def Con from 0.000250136 to 0.000250143
Heightened Def Con from 0.000252237 to 0.000252238
Heightened Def Con from 0.000253166 to 0.000253167
Heightened Def Con from 0.000255264 to 0.000255264
Heightened Def Con from 0.0002562 to 0.000256201
Heightened Def Con from 0.000258287 to 0.000258288
Heightened Def Con from 0.000259237 to 0.000259244
Heightened Def Con from 0.000261308 to 0.000261309
Heightened Def Con from 0.000262276 to 0.000262276
Heightened Def Con from 0.000264327 to 0.000264327
Heightened Def Con from 0.000265317 to 0.000265317
Heightened Def Con from 0.000267343 to 0.000267344
Heightened Def Con from 0.00026836 to 0.00026836
Heightened Def Con from 0.000270357 to 0.000270358
Heightened Def Con from 0.000271406 to 0.000271406
Heightened Def Con from 0.000273368 to 0.000273368
Heightened Def Con from 0.000274453 to 0.000274453
Heightened Def Con from 0.000276377 to 0.000276377
Heightened Def Con from 0.000277501 to 0.000277502
Heightened Def Con from 0.000279383 to 0.000279384
Heightened Def Con from 0.000280552 to 0.000280558
Heightened Def Con from 0.000282389 to 0.000282389
Heightened Def Con from 0.000283604 to 0.000283605
Heightened Def Con from 0.000285393 to 0.000285394
Heightened Def Con from 0.000286657 to 0.000286658
Heightened Def Con from 0.000288394 to 0.000288395
Heightened Def Con from 0.000289712 to 0.000289712
Heightened Def Con from 0.000291397 to 0.000291397
Heightened Def Con from 0.000292767 to 0.000292768
Heightened Def Con from 0.000294398 to 0.000294398
Heightened Def Con from 0.000295823 to 0.000295823
Heightened Def Con from 0.000297398 to 0.000297399
Heightened Def Con from 0.000298879 to 0.00029888
Heightened Def Con from 0.000300399 to 0.0003004
Heightened Def Con from 0.000301937 to 0.000301937
Heightened Def Con from 0.0003034 to 0.0003034
Heightened Def Con from 0.000304992 to 0.000304993
Heightened Def Con from 0.0003064 to 0.000306401
Heightened Def Con from 0.000308049 to 0.000308055
Heightened Def Con from 0.000309402 to 0.000309402
Heightened Def Con from 0.000311104 to 0.000311105
Heightened Def Con from 0.000312404 to 0.000312404
Heightened Def Con from 0.000314158 to 0.000314159
Heightened Def Con from 0.000315406 to 0.000315406
Heightened Def Con from 0.000317211 to 0.000317211
Heightened Def Con from 0.000318409 to 0.00031841
Heightened Def Con from 0.000320262 to 0.000320262
Heightened Def Con from 0.000321415 to 0.000321416
Heightened Def Con from 0.000323312 to 0.000323312
Heightened Def Con from 0.000324422 to 0.000324422
Heightened Def Con from 0.00032636 to 0.00032636
Heightened Def Con from 0.000327432 to 0.000327432
Heightened Def Con from 0.000329406 to 0.000329406
Heightened Def Con from 0.000330442 to 0.000330442
Heightened Def Con from 0.00033245 to 0.000332451
Heightened Def Con from 0.000333456 to 0.000333456
Heightened Def Con from 0.000335492 to 0.000335492
Heightened Def Con from 0.00033647 to 0.000336471
Heightened Def Con from 0.000338531 to 0.000338531
Heightened Def Con from 0.000339488 to 0.000339489
Heightened Def Con from 0.000341567 to 0.000341568
Heightened Def Con from 0.000342509 to 0.000342509
Heightened Def Con from 0.000344601 to 0.000344602
Heightened Def Con from 0.000345531 to 0.000345531
Heightened Def Con from 0.000347633 to 0.000347633
Heightened Def Con from 0.000348556 to 0.000348557
Heightened Def Con from 0.000350662 to 0.000350662
Heightened Def Con from 0.000351584 to 0.000351584
Heightened Def Con from 0.000353688 to 0.000353688
Heightened Def Con from 0.000354615 to 0.000354616
Heightened Def Con from 0.000356711 to 0.000356712
Heightened Def Con from 0.000357649 to 0.000357649
Heightened Def Con from 0.000359732 to 0.000359733
Heightened Def Con from 0.000360685 to 0.000360686
Heightened Def Con from 0.000362751 to 0.000362752
Heightened Def Con from 0.000363723 to 0.000363724
Heightened Def Con from 0.000365767 to 0.000365768
Heightened Def Con from 0.000366766 to 0.000366766
Heightened Def Con from 0.000368781 to 0.000368782
Heightened Def Con from 0.000369809 to 0.000369809
Heightened Def Con from 0.000371792 to 0.000371792
Heightened Def Con from 0.000372854 to 0.000372854
Heightened Def Con from 0.000374801 to 0.000374802
Heightened Def Con from 0.000375902 to 0.000375902
Heightened Def Con from 0.000377809 to 0.00037781
Heightened Def Con from 0.00037895 to 0.000378951
Heightened Def Con from 0.000380814 to 0.000380815
Heightened Def Con from 0.000382 to 0.000382001
Heightened Def Con from 0.000383819 to 0.00038382
Heightened Def Con from 0.000385054 to 0.000385055
Heightened Def Con from 0.000386823 to 0.000386823
Heightened Def Con from 0.000388109 to 0.000388109
Heightened Def Con from 0.000389825 to 0.000389826
Heightened Def Con from 0.000391161 to 0.000391161
Heightened Def Con from 0.000392824 to 0.000392824
Heightened Def Con from 0.000394217 to 0.000394218
Heightened Def Con from 0.000395824 to 0.00039583
Heightened Def Con from 0.000397272 to 0.000397273
Heightened Def Con from 0.000398824 to 0.000398825
Heightened Def Con from 0.000400329 to 0.000400329
Heightened Def Con from 0.000401825 to 0.000401831
Heightened Def Con from 0.000403386 to 0.000403387
Heightened Def Con from 0.000404826 to 0.000404827
Heightened Def Con from 0.000406443 to 0.000406443
Heightened Def Con from 0.000409498 to 0.000409498
Heightened Def Con from 0.000410828 to 0.000410829
Heightened Def Con from 0.000412553 to 0.000412553
Heightened Def Con from 0.000413832 to 0.000413832
Heightened Def Con from 0.000415607 to 0.000415607
Heightened Def Con from 0.000416835 to 0.000416835
Heightened Def Con from 0.000418659 to 0.00041866
Heightened Def Con from 0.00041984 to 0.000419841
Heightened Def Con from 0.00042171 to 0.00042171
Heightened Def Con from 0.000422846 to 0.000422847
Heightened Def Con from 0.000424759 to 0.000424759
Heightened Def Con from 0.000425854 to 0.000425855
Heightened Def Con from 0.000427808 to 0.000427808
Heightened Def Con from 0.000428865 to 0.000428865
Heightened Def Con from 0.000430852 to 0.000430853
Heightened Def Con from 0.000431876 to 0.000431877
Heightened Def Con from 0.000433895 to 0.000433895
Heightened Def Con from 0.000434891 to 0.000434892
Heightened Def Con from 0.000436937 to 0.000436937
Heightened Def Con from 0.000437909 to 0.00043791
Heightened Def Con from 0.000439976 to 0.000439976
Heightened Def Con from 0.000440929 to 0.00044093
Heightened Def Con from 0.000443012 to 0.000443013
Heightened Def Con from 0.000443952 to 0.000443953
Heightened Def Con from 0.000446046 to 0.000446047
Heightened Def Con from 0.000446977 to 0.000446984
Heightened Def Con from 0.000449077 to 0.000449078
Heightened Def Con from 0.000450005 to 0.000450012
Heightened Def Con from 0.000452106 to 0.000452106
Heightened Def Con from 0.000453036 to 0.000453037
Heightened Def Con from 0.000455133 to 0.000455134
Heightened Def Con from 0.00045607 to 0.00045607
Heightened Def Con from 0.000458156 to 0.000458157
Heightened Def Con from 0.000459106 to 0.000459106
Heightened Def Con from 0.000461177 to 0.000461177
Heightened Def Con from 0.000462144 to 0.000462151
Heightened Def Con from 0.000464196 to 0.000464196
Heightened Def Con from 0.000465185 to 0.000465185
Heightened Def Con from 0.000467211 to 0.000467212
Heightened Def Con from 0.000468227 to 0.000468227
Heightened Def Con from 0.000470224 to 0.000470225
Heightened Def Con from 0.000471271 to 0.000471272
Heightened Def Con from 0.000473236 to 0.000473236
Heightened Def Con from 0.000474319 to 0.000474325
Heightened Def Con from 0.000476243 to 0.000476244
Heightened Def Con from 0.000477366 to 0.000477367
Heightened Def Con from 0.00047925 to 0.000479251
Heightened Def Con from 0.000480417 to 0.000480417
Heightened Def Con from 0.000482256 to 0.000482256
Heightened Def Con from 0.000483469 to 0.00048347
Heightened Def Con from 0.00048526 to 0.000485261
Heightened Def Con from 0.000486523 to 0.000486524
Heightened Def Con from 0.000488263 to 0.000488264
Heightened Def Con from 0.000489578 to 0.000489578
Heightened Def Con from 0.000491265 to 0.000491265
Heightened Def Con from 0.000492633 to 0.000492633
Heightened Def Con from 0.000494264 to 0.000494265
Heightened Def Con from 0.000495688 to 0.000495689
Heightened Def Con from 0.000497266 to 0.000497266
Heightened Def Con from 0.000498745 to 0.000498746
Heightened Def Con from 0.000500266 to 0.000500266
Heightened Def Con from 0.000501799 to 0.0005018
Heightened Def Con from 0.000503265 to 0.000503266
Heightened Def Con from 0.000504856 to 0.000504857
Heightened Def Con from 0.000506266 to 0.000506267
Heightened Def Con from 0.000507912 to 0.000507912
Heightened Def Con from 0.000509268 to 0.000509268
Heightened Def Con from 0.000510966 to 0.000510967
Heightened Def Con from 0.000512268 to 0.000512268
Heightened Def Con from 0.000514021 to 0.000514022
Heightened Def Con from 0.000515272 to 0.000515272
Heightened Def Con from 0.000517075 to 0.000517075
Heightened Def Con from 0.000518276 to 0.000518276
Heightened Def Con from 0.000520126 to 0.000520127
Heightened Def Con from 0.000521281 to 0.000521282
Heightened Def Con from 0.000523176 to 0.000523177
Heightened Def Con from 0.000524289 to 0.000524289
Heightened Def Con from 0.000526224 to 0.000526225
Heightened Def Con from 0.000527298 to 0.000527298
Heightened Def Con from 0.000529271 to 0.000529271
Heightened Def Con from 0.000530307 to 0.000530308
Heightened Def Con from 0.000532314 to 0.000532315
Heightened Def Con from 0.00053332 to 0.000533321
Heightened Def Con from 0.000535356 to 0.000535356
Heightened Def Con from 0.000536336 to 0.000536336
Heightened Def Con from 0.000538396 to 0.000538396
Heightened Def Con from 0.000539354 to 0.000539355
Heightened Def Con from 0.000541433 to 0.000541433
Heightened Def Con from 0.000542375 to 0.000542375
Heightened Def Con from 0.000544467 to 0.000544468
Heightened Def Con from 0.000545398 to 0.000545398
Heightened Def Con from 0.000547499 to 0.0005475
Heightened Def Con from 0.000548423 to 0.000548424
Heightened Def Con from 0.000550529 to 0.000550535
Heightened Def Con from 0.000551452 to 0.000551452
Heightened Def Con from 0.000553556 to 0.000553556
Heightened Def Con from 0.000554484 to 0.000554484
Heightened Def Con from 0.000556581 to 0.000556581
Heightened Def Con from 0.000557517 to 0.000557518
Heightened Def Con from 0.000559602 to 0.000559603
Heightened Def Con from 0.000560555 to 0.000560555
Heightened Def Con from 0.000562621 to 0.000562622
Heightened Def Con from 0.000563594 to 0.000563594
Heightened Def Con from 0.000565638 to 0.000565638
Heightened Def Con from 0.000566634 to 0.000566635
Heightened Def Con from 0.000568652 to 0.000568652
Heightened Def Con from 0.000569677 to 0.000569678
Heightened Def Con from 0.000571663 to 0.000571664
Heightened Def Con from 0.000572724 to 0.000572724
Heightened Def Con from 0.000574673 to 0.000574674
Heightened Def Con from 0.000575771 to 0.000575772
Heightened Def Con from 0.000577682 to 0.000577683
Heightened Def Con from 0.000578822 to 0.000578823
Heightened Def Con from 0.000580689 to 0.000580689
Heightened Def Con from 0.000581874 to 0.000581874
Heightened Def Con from 0.000583693 to 0.000583694
Heightened Def Con from 0.000584927 to 0.000584927
Heightened Def Con from 0.000586698 to 0.000586698
Heightened Def Con from 0.000587981 to 0.000587982
Heightened Def Con from 0.0005897 to 0.000589706
Heightened Def Con from 0.000591036 to 0.000591037
Heightened Def Con from 0.000592701 to 0.000592701
Heightened Def Con from 0.000594092 to 0.000594092
Heightened Def Con from 0.0005957 to 0.000595701
Heightened Def Con from 0.000597146 to 0.000597147
Heightened Def Con from 0.0005987 to 0.000598701
Heightened Def Con from 0.000600202 to 0.000600203
Heightened Def Con from 0.000601701 to 0.000601702
Heightened Def Con from 0.000603259 to 0.00060326
Heightened Def Con from 0.000604702 to 0.000604703
Heightened Def Con from 0.000606316 to 0.000606316
Heightened Def Con from 0.000607703 to 0.000607704
Heightened Def Con from 0.000609372 to 0.000609372
Heightened Def Con from 0.000610705 to 0.000610705
Heightened Def Con from 0.000612426 to 0.000612426
Heightened Def Con from 0.000613707 to 0.000613707
Heightened Def Con from 0.00061548 to 0.00061548
Heightened Def Con from 0.000616711 to 0.000616717
Heightened Def Con from 0.000618533 to 0.000618534
Heightened Def Con from 0.000619716 to 0.000619716
Heightened Def Con from 0.000621585 to 0.000621585
Heightened Def Con from 0.000622723 to 0.000622723
Heightened Def Con from 0.000624635 to 0.000624635
Heightened Def Con from 0.000625731 to 0.000625737
Heightened Def Con from 0.000627681 to 0.000627682
Heightened Def Con from 0.000628741 to 0.000628741
Heightened Def Con from 0.000630727 to 0.000630728
Heightened Def Con from 0.000631754 to 0.000631754
Heightened Def Con from 0.000633771 to 0.000633772
Heightened Def Con from 0.000634769 to 0.00063477
Heightened Def Con from 0.000636813 to 0.000636814
Heightened Def Con from 0.000639852 to 0.000639852
Heightened Def Con from 0.000640807 to 0.000640807
Heightened Def Con from 0.00064289 to 0.00064289
Heightened Def Con from 0.00064383 to 0.000643831
Heightened Def Con from 0.000645925 to 0.000645925
Heightened Def Con from 0.000646856 to 0.000646857
Heightened Def Con from 0.000648957 to 0.000648957
Heightened Def Con from 0.000649885 to 0.000649892
Heightened Def Con from 0.000651986 to 0.000651986
Heightened Def Con from 0.000652915 to 0.000652916
Heightened Def Con from 0.000655012 to 0.000655013
Heightened Def Con from 0.000655949 to 0.000655949
Heightened Def Con from 0.000658036 to 0.000658036
Heightened Def Con from 0.000658984 to 0.000658985
Heightened Def Con from 0.000661057 to 0.000661057
Heightened Def Con from 0.000662023 to 0.000662023
Heightened Def Con from 0.000664075 to 0.000664075
Heightened Def Con from 0.000665063 to 0.00066507
Heightened Def Con from 0.000667091 to 0.000667092
Heightened Def Con from 0.000668105 to 0.000668105
Heightened Def Con from 0.000670105 to 0.000670105
Heightened Def Con from 0.00067115 to 0.000671156
Heightened Def Con from 0.000673116 to 0.000673116
Heightened Def Con from 0.000674198 to 0.000674198
Heightened Def Con from 0.000676126 to 0.000676126
Heightened Def Con from 0.000677247 to 0.000677247
Heightened Def Con from 0.000679132 to 0.000679132
Heightened Def Con from 0.000680297 to 0.000680297
Heightened Def Con from 0.000682137 to 0.000682138
Heightened Def Con from 0.000683349 to 0.000683349
Heightened Def Con from 0.000685141 to 0.000685141
Heightened Def Con from 0.000686403 to 0.000686403
Heightened Def Con from 0.000688144 to 0.000688145
Heightened Def Con from 0.000689456 to 0.000689457
Heightened Def Con from 0.000691146 to 0.000691146
Heightened Def Con from 0.000692512 to 0.000692512
Heightened Def Con from 0.000694147 to 0.000694147
Heightened Def Con from 0.000695567 to 0.000695568
Heightened Def Con from 0.000697147 to 0.000697148
Heightened Def Con from 0.000698624 to 0.000698625
Heightened Def Con from 0.000700149 to 0.00070015
Heightened Def Con from 0.000701681 to 0.000701681
Heightened Def Con from 0.000703149 to 0.000703149
Heightened Def Con from 0.000704738 to 0.000704738
Heightened Def Con from 0.000706149 to 0.00070615
Heightened Def Con from 0.000707794 to 0.000707794
Heightened Def Con from 0.000709152 to 0.000709153
Heightened Def Con from 0.000710849 to 0.00071085
Heightened Def Con from 0.000712153 to 0.000712153
Heightened Def Con from 0.000713901 to 0.000713902
Heightened Def Con from 0.000715155 to 0.000715155
Heightened Def Con from 0.000716955 to 0.000716956
Heightened Def Con from 0.000718159 to 0.000718159
Heightened Def Con from 0.000720007 to 0.000720008
Heightened Def Con from 0.000721163 to 0.000721164
Heightened Def Con from 0.000723057 to 0.000723057
Heightened Def Con from 0.000724171 to 0.000724172
Heightened Def Con from 0.000726106 to 0.000726106
Heightened Def Con from 0.000727181 to 0.000727181
Heightened Def Con from 0.000729152 to 0.000729158
Heightened Def Con from 0.000730192 to 0.000730192
Heightened Def Con from 0.000732196 to 0.000732197
Heightened Def Con from 0.000733204 to 0.000733205
Heightened Def Con from 0.000735238 to 0.000735239
Heightened Def Con from 0.000736219 to 0.00073622
Heightened Def Con from 0.000738278 to 0.000738279
Heightened Def Con from 0.000739237 to 0.000739238
Heightened Def Con from 0.000741315 to 0.000741315
Heightened Def Con from 0.000742257 to 0.000742258
Heightened Def Con from 0.00074435 to 0.000744351
Heightened Def Con from 0.000745281 to 0.000745281
Heightened Def Con from 0.000747382 to 0.000747383
Heightened Def Con from 0.000748306 to 0.000748306
Heightened Def Con from 0.000750412 to 0.000750412
Heightened Def Con from 0.000751334 to 0.000751335
Heightened Def Con from 0.000753438 to 0.000753438
Heightened Def Con from 0.000754365 to 0.000754365
Heightened Def Con from 0.000756462 to 0.000756468
Heightened Def Con from 0.000757398 to 0.000757398
Heightened Def Con from 0.000759483 to 0.000759483
Heightened Def Con from 0.000760434 to 0.000760435
Heightened Def Con from 0.0007625 to 0.000762501
Heightened Def Con from 0.000763471 to 0.000763472
Heightened Def Con from 0.000765517 to 0.000765517
Heightened Def Con from 0.000766512 to 0.000766512
Heightened Def Con from 0.00076853 to 0.00076853
Heightened Def Con from 0.000769555 to 0.000769556
Heightened Def Con from 0.000771542 to 0.000771543
Heightened Def Con from 0.000772601 to 0.000772602
Heightened Def Con from 0.000774553 to 0.000774553
Heightened Def Con from 0.000775649 to 0.00077565
Heightened Def Con from 0.000777559 to 0.00077756
Heightened Def Con from 0.000778698 to 0.000778698
Heightened Def Con from 0.000780565 to 0.000780566
Heightened Def Con from 0.000781748 to 0.000781748
Heightened Def Con from 0.00078357 to 0.00078357
Heightened Def Con from 0.000784801 to 0.000784801
Heightened Def Con from 0.000786573 to 0.000786573
Heightened Def Con from 0.000787854 to 0.000787854
Heightened Def Con from 0.000789575 to 0.000789575
Heightened Def Con from 0.000790908 to 0.000790909
Heightened Def Con from 0.000792575 to 0.000792576
Heightened Def Con from 0.000793964 to 0.000793964
Heightened Def Con from 0.000795576 to 0.000795576
Heightened Def Con from 0.00079702 to 0.000797021
Heightened Def Con from 0.000798576 to 0.000798577
Heightened Def Con from 0.000800076 to 0.000800077
Heightened Def Con from 0.000801577 to 0.000801577
Heightened Def Con from 0.000803133 to 0.000803133
Heightened Def Con from 0.000804578 to 0.000804578
Heightened Def Con from 0.000806189 to 0.000806189
Heightened Def Con from 0.000807579 to 0.00080758
Heightened Def Con from 0.000809245 to 0.000809245
Heightened Def Con from 0.000810581 to 0.000810581
Heightened Def Con from 0.0008123 to 0.000812301
Heightened Def Con from 0.000813583 to 0.000813583
Heightened Def Con from 0.000815353 to 0.000815354
Heightened Def Con from 0.000816587 to 0.000816587
Heightened Def Con from 0.000818405 to 0.000818406
Heightened Def Con from 0.00081959 to 0.000819591
Heightened Def Con from 0.000821456 to 0.000821457
Heightened Def Con from 0.000822597 to 0.000822603
Heightened Def Con from 0.000824506 to 0.000824507
Heightened Def Con from 0.000825605 to 0.000825606
Heightened Def Con from 0.000827554 to 0.000827555
Heightened Def Con from 0.000828614 to 0.000828614
Heightened Def Con from 0.0008306 to 0.000830601
Heightened Def Con from 0.000831627 to 0.000831628
Heightened Def Con from 0.000833643 to 0.000833643
Heightened Def Con from 0.000834641 to 0.000834642
Heightened Def Con from 0.000836684 to 0.000836685
Heightened Def Con from 0.000837659 to 0.00083766
Heightened Def Con from 0.000839723 to 0.000839724
Heightened Def Con from 0.000840679 to 0.000840679
Heightened Def Con from 0.000842761 to 0.000842761
Heightened Def Con from 0.000843701 to 0.000843702
Heightened Def Con from 0.000845795 to 0.000845795
Heightened Def Con from 0.000846727 to 0.000846727
Heightened Def Con from 0.000848827 to 0.000848828
Heightened Def Con from 0.000849755 to 0.000849762
Heightened Def Con from 0.000851857 to 0.000851857
Heightened Def Con from 0.000852786 to 0.000852786
Heightened Def Con from 0.000854884 to 0.000854884
Heightened Def Con from 0.000855819 to 0.000855826
Heightened Def Con from 0.000857908 to 0.000857908
Heightened Def Con from 0.000858856 to 0.000858856
Heightened Def Con from 0.00086093 to 0.00086093
Heightened Def Con from 0.000861895 to 0.000861896
Heightened Def Con from 0.000863949 to 0.000863949
Heightened Def Con from 0.000864936 to 0.000864937
Heightened Def Con from 0.000866966 to 0.000866966
Heightened Def Con from 0.000867979 to 0.000867979
Heightened Def Con from 0.00086998 to 0.00086998
Heightened Def Con from 0.000871023 to 0.000871029
Heightened Def Con from 0.00087299 to 0.000872991
Heightened Def Con from 0.00087407 to 0.000874076
Heightened Def Con from 0.000875999 to 0.000875999
Heightened Def Con from 0.000877118 to 0.000877119
Heightened Def Con from 0.000879005 to 0.000879006
Heightened Def Con from 0.000880168 to 0.000880174
Heightened Def Con from 0.000882011 to 0.000882011
Heightened Def Con from 0.00088322 to 0.000883221
Heightened Def Con from 0.000885015 to 0.000885016
Heightened Def Con from 0.000886274 to 0.000886274
Heightened Def Con from 0.000888018 to 0.000888019
Heightened Def Con from 0.000889328 to 0.000889329
Heightened Def Con from 0.00089102 to 0.000891021
Heightened Def Con from 0.000892384 to 0.000892385
Heightened Def Con from 0.000894021 to 0.000894022
Heightened Def Con from 0.000895439 to 0.00089544
Heightened Def Con from 0.000897021 to 0.000897022
Heightened Def Con from 0.000898497 to 0.000898497
Heightened Def Con from 0.000900023 to 0.000900024
Heightened Def Con from 0.000901554 to 0.00090156
Heightened Def Con from 0.000903024 to 0.000903025
Heightened Def Con from 0.000904611 to 0.000904611
Heightened Def Con from 0.000906025 to 0.000906025
Heightened Def Con from 0.000907667 to 0.000907667
Heightened Def Con from 0.000909026 to 0.000909027
Heightened Def Con from 0.000910721 to 0.000910721
Heightened Def Con from 0.000912027 to 0.000912027
Heightened Def Con from 0.000913775 to 0.000913776
Heightened Def Con from 0.00091503 to 0.00091503
Heightened Def Con from 0.000916828 to 0.000916829
Heightened Def Con from 0.000918035 to 0.000918035
Heightened Def Con from 0.00091988 to 0.00091988
Heightened Def Con from 0.000921039 to 0.000921039
Heightened Def Con from 0.000924046 to 0.000924046
Heightened Def Con from 0.000925979 to 0.000925979
Heightened Def Con from 0.000927054 to 0.000927055
Heightened Def Con from 0.000929025 to 0.000929025
Heightened Def Con from 0.000930066 to 0.000930066
Heightened Def Con from 0.000933079 to 0.000933079
Heightened Def Con from 0.000935112 to 0.000935113
Heightened Def Con from 0.000936094 to 0.000936095
Heightened Def Con from 0.000938153 to 0.000938153
Heightened Def Con from 0.000939113 to 0.000939113
Heightened Def Con from 0.00094119 to 0.000941191
Heightened Def Con from 0.000942133 to 0.000942134
Heightened Def Con from 0.000944225 to 0.000944225
Heightened Def Con from 0.000945155 to 0.000945156
Heightened Def Con from 0.000947258 to 0.000947258
Heightened Def Con from 0.000948183 to 0.000948184
Heightened Def Con from 0.000950288 to 0.000950288
Heightened Def Con from 0.000951211 to 0.000951211
Heightened Def Con from 0.000953314 to 0.000953315
Heightened Def Con from 0.000954241 to 0.000954241
Heightened Def Con from 0.000956338 to 0.000956338
Heightened Def Con from 0.000957274 to 0.000957275
Heightened Def Con from 0.000959359 to 0.00095936
Heightened Def Con from 0.000960308 to 0.000960309
Heightened Def Con from 0.000962377 to 0.000962378
Heightened Def Con from 0.000963348 to 0.000963348
Heightened Def Con from 0.000965394 to 0.000965395
Heightened Def Con from 0.000966389 to 0.00096639
Heightened Def Con from 0.000968408 to 0.000968409
Heightened Def Con from 0.000969432 to 0.000969433
Heightened Def Con from 0.000971421 to 0.000971421
Heightened Def Con from 0.000972479 to 0.000972479
Heightened Def Con from 0.000974431 to 0.000974432
Heightened Def Con from 0.000975525 to 0.000975526
Heightened Def Con from 0.000977438 to 0.000977439
Heightened Def Con from 0.000978575 to 0.000978576
Heightened Def Con from 0.000980444 to 0.000980445
Heightened Def Con from 0.000981626 to 0.000981626
Heightened Def Con from 0.00098345 to 0.00098345
Heightened Def Con from 0.000984679 to 0.000984679
Heightened Def Con from 0.000986453 to 0.000986453
Heightened Def Con from 0.000987733 to 0.000987733
Heightened Def Con from 0.000989456 to 0.000989456
Heightened Def Con from 0.000990786 to 0.000990787
Heightened Def Con from 0.000992455 to 0.000992456
Heightened Def Con from 0.00099384 to 0.000993841
Heightened Def Con from 0.000995455 to 0.000995456
Heightened Def Con from 0.000996897 to 0.000996897
Heightened Def Con from 0.000998456 to 0.000998456
Heightened Def Con from 0.000999953 to 0.000999954
Heightened Def Con from 0.00100146 to 0.00100146
Heightened Def Con from 0.00100301 to 0.00100301
Heightened Def Con from 0.00100446 to 0.00100446
Heightened Def Con from 0.00100607 to 0.00100607
Heightened Def Con from 0.00100746 to 0.00100746
Heightened Def Con from 0.00100912 to 0.00100912
Heightened Def Con from 0.00101046 to 0.00101046
Heightened Def Con from 0.00101218 to 0.00101218
Heightened Def Con from 0.00101523 to 0.00101523
Heightened Def Con from 0.00101646 to 0.00101647
Heightened Def Con from 0.00101828 to 0.00101828
Heightened Def Con from 0.00101947 to 0.00101947
Heightened Def Con from 0.00102133 to 0.00102134
Heightened Def Con from 0.00102248 to 0.00102248
Heightened Def Con from 0.00102438 to 0.00102438
Heightened Def Con from 0.00102548 to 0.00102548
Heightened Def Con from 0.00102743 to 0.00102743
Heightened Def Con from 0.00102849 to 0.00102849
Heightened Def Con from 0.00103048 to 0.00103048
Heightened Def Con from 0.00103151 to 0.00103151
Heightened Def Con from 0.00103352 to 0.00103352
Heightened Def Con from 0.00103452 to 0.00103452
Heightened Def Con from 0.00103656 to 0.00103656
Heightened Def Con from 0.00103754 to 0.00103754
Heightened Def Con from 0.0010396 to 0.0010396
Heightened Def Con from 0.00104056 to 0.00104056
Heightened Def Con from 0.00104264 to 0.00104264
Heightened Def Con from 0.00104358 to 0.00104358
Heightened Def Con from 0.00104568 to 0.00104568
Heightened Def Con from 0.00104661 to 0.00104661
Heightened Def Con from 0.00104871 to 0.00104871
Heightened Def Con from 0.00104964 to 0.00104964
Heightened Def Con from 0.00105174 to 0.00105174
Heightened Def Con from 0.00105267 to 0.00105267
Heightened Def Con from 0.00105476 to 0.00105476
Heightened Def Con from 0.0010557 to 0.0010557
Heightened Def Con from 0.00105779 to 0.00105779
Heightened Def Con from 0.00105873 to 0.00105874
Heightened Def Con from 0.00106081 to 0.00106081
Heightened Def Con from 0.00106177 to 0.00106177
Heightened Def Con from 0.00106383 to 0.00106383
Heightened Def Con from 0.00106481 to 0.00106482
Heightened Def Con from 0.00106685 to 0.00106685
Heightened Def Con from 0.00106786 to 0.00106786
Heightened Def Con from 0.00106986 to 0.00106986
Heightened Def Con from 0.0010709 to 0.0010709
Heightened Def Con from 0.00107287 to 0.00107287
Heightened Def Con from 0.00107395 to 0.00107395
Heightened Def Con from 0.00107588 to 0.00107588
Heightened Def Con from 0.001077 to 0.001077
Heightened Def Con from 0.00107889 to 0.00107889
Heightened Def Con from 0.00108005 to 0.00108005
Heightened Def Con from 0.00108189 to 0.00108189
Heightened Def Con from 0.0010831 to 0.0010831
Heightened Def Con from 0.0010849 to 0.0010849
Heightened Def Con from 0.00108615 to 0.00108615
Heightened Def Con from 0.0010879 to 0.0010879
Heightened Def Con from 0.00108921 to 0.00108921
Heightened Def Con from 0.0010909 to 0.0010909
Heightened Def Con from 0.00109226 to 0.00109226
Heightened Def Con from 0.0010939 to 0.0010939
Heightened Def Con from 0.00109532 to 0.00109532
Heightened Def Con from 0.0010969 to 0.0010969
Heightened Def Con from 0.00109837 to 0.00109837
Heightened Def Con from 0.0010999 to 0.0010999
Heightened Def Con from 0.00110143 to 0.00110143
Heightened Def Con from 0.0011029 to 0.0011029
Heightened Def Con from 0.00110448 to 0.00110449
Heightened Def Con from 0.0011059 to 0.0011059
Heightened Def Con from 0.00110754 to 0.00110754
Heightened Def Con from 0.0011089 to 0.0011089
Heightened Def Con from 0.0011106 to 0.0011106
Heightened Def Con from 0.0011119 to 0.0011119
Heightened Def Con from 0.00111365 to 0.00111365
Heightened Def Con from 0.00111491 to 0.00111491
Heightened Def Con from 0.0011167 to 0.0011167
Heightened Def Con from 0.00111791 to 0.00111791
Heightened Def Con from 0.00111976 to 0.00111976
Heightened Def Con from 0.00112092 to 0.00112092
Heightened Def Con from 0.0011228 to 0.00112281
Heightened Def Con from 0.00112392 to 0.00112392
Heightened Def Con from 0.00112585 to 0.00112585
Heightened Def Con from 0.00112693 to 0.00112693
Heightened Def Con from 0.0011289 to 0.0011289
Heightened Def Con from 0.00112994 to 0.00112994
Heightened Def Con from 0.00113194 to 0.00113194
Heightened Def Con from 0.00113295 to 0.00113295
Heightened Def Con from 0.00113499 to 0.00113499
Heightened Def Con from 0.00113597 to 0.00113597
Heightened Def Con from 0.00113803 to 0.00113803
Heightened Def Con from 0.00113899 to 0.00113899
Heightened Def Con from 0.00114106 to 0.00114106
Heightened Def Con from 0.00114201 to 0.00114201
Heightened Def Con from 0.0011441 to 0.0011441
Heightened Def Con from 0.00114503 to 0.00114503
Heightened Def Con from 0.00114713 to 0.00114714
Heightened Def Con from 0.00114806 to 0.00114806
Heightened Def Con from 0.00115016 to 0.00115016
Heightened Def Con from 0.00115108 to 0.00115108
Heightened Def Con from 0.00115319 to 0.00115319
Heightened Def Con from 0.00115411 to 0.00115411
Heightened Def Con from 0.00115621 to 0.00115621
Heightened Def Con from 0.00115715 to 0.00115715
Heightened Def Con from 0.00116018 to 0.00116018
Heightened Def Con from 0.00116225 to 0.00116225
Heightened Def Con from 0.00116322 to 0.00116322
Heightened Def Con from 0.00116527 to 0.00116527
Heightened Def Con from 0.00116626 to 0.00116626
Heightened Def Con from 0.00116828 to 0.00116828
Heightened Def Con from 0.0011693 to 0.00116931
Heightened Def Con from 0.0011713 to 0.0011713
Heightened Def Con from 0.00117235 to 0.00117235
Heightened Def Con from 0.0011743 to 0.00117431
Heightened Def Con from 0.0011754 to 0.0011754
Heightened Def Con from 0.00117731 to 0.00117732
Heightened Def Con from 0.00117845 to 0.00117845
Heightened Def Con from 0.00118032 to 0.00118032
Heightened Def Con from 0.0011815 to 0.0011815
Heightened Def Con from 0.00118332 to 0.00118332
Heightened Def Con from 0.00118455 to 0.00118455
Heightened Def Con from 0.00118633 to 0.00118633
Heightened Def Con from 0.0011876 to 0.00118761
Heightened Def Con from 0.00118933 to 0.00118933
Heightened Def Con from 0.00119066 to 0.00119066
Heightened Def Con from 0.00119233 to 0.00119233
Heightened Def Con from 0.00119372 to 0.00119372
Heightened Def Con from 0.00119533 to 0.00119533
Heightened Def Con from 0.00119677 to 0.00119677
Heightened Def Con from 0.00119833 to 0.00119833
Heightened Def Con from 0.00119983 to 0.00119983
Heightened Def Con from 0.00120133 to 0.00120133
Heightened Def Con from 0.00120288 to 0.00120289
Heightened Def Con from 0.00120433 to 0.00120433
Heightened Def Con from 0.00120594 to 0.00120594
Heightened Def Con from 0.00120733 to 0.00120734
Heightened Def Con from 0.001209 to 0.001209
Heightened Def Con from 0.00121034 to 0.00121034
Heightened Def Con from 0.00121205 to 0.00121205
Heightened Def Con from 0.00121511 to 0.00121511
Heightened Def Con from 0.00121634 to 0.00121634
Heightened Def Con from 0.00121816 to 0.00121816
Heightened Def Con from 0.00121935 to 0.00121935
Heightened Def Con from 0.00122121 to 0.00122121
Heightened Def Con from 0.00122235 to 0.00122235
Heightened Def Con from 0.00122426 to 0.00122426
Heightened Def Con from 0.00122536 to 0.00122536
Heightened Def Con from 0.00122731 to 0.00122731
Heightened Def Con from 0.00122837 to 0.00122837
Heightened Def Con from 0.00123035 to 0.00123035
Heightened Def Con from 0.00123138 to 0.00123138
Heightened Def Con from 0.0012334 to 0.0012334
Heightened Def Con from 0.0012344 to 0.0012344
Heightened Def Con from 0.00123644 to 0.00123644
Heightened Def Con from 0.00123741 to 0.00123742
Heightened Def Con from 0.00123948 to 0.00123948
Heightened Def Con from 0.00124043 to 0.00124043
Heightened Def Con from 0.00124251 to 0.00124252
Heightened Def Con from 0.00124346 to 0.00124346
Heightened Def Con from 0.00124555 to 0.00124555
Heightened Def Con from 0.00124648 to 0.00124648
Heightened Def Con from 0.00124858 to 0.00124858
Heightened Def Con from 0.00124951 to 0.00124951
Heightened Def Con from 0.00125161 to 0.00125161
Heightened Def Con from 0.00125254 to 0.00125254
Heightened Def Con from 0.00125464 to 0.00125464
Heightened Def Con from 0.00125557 to 0.00125557
Heightened Def Con from 0.00125766 to 0.00125766
Heightened Def Con from 0.00125861 to 0.00125861
Heightened Def Con from 0.00126068 to 0.00126068
Heightened Def Con from 0.00126165 to 0.00126165
Heightened Def Con from 0.0012637 to 0.0012637
Heightened Def Con from 0.00126469 to 0.00126469
Heightened Def Con from 0.00126672 to 0.00126672
Heightened Def Con from 0.00126773 to 0.00126773
Heightened Def Con from 0.00126973 to 0.00126973
Heightened Def Con from 0.00127077 to 0.00127077
Heightened Def Con from 0.00127274 to 0.00127274
Heightened Def Con from 0.00127382 to 0.00127383
Heightened Def Con from 0.00127575 to 0.00127575
Heightened Def Con from 0.00127687 to 0.00127687
Heightened Def Con from 0.00127876 to 0.00127876
Heightened Def Con from 0.00127992 to 0.00127992
Heightened Def Con from 0.00128177 to 0.00128177
Heightened Def Con from 0.00128297 to 0.00128297
Heightened Def Con from 0.00128477 to 0.00128477
Heightened Def Con from 0.00128603 to 0.00128603
Heightened Def Con from 0.00128777 to 0.00128777
Heightened Def Con from 0.00128908 to 0.00128908
Heightened Def Con from 0.00129078 to 0.00129078
Heightened Def Con from 0.00129214 to 0.00129214
Heightened Def Con from 0.00129378 to 0.00129378
Heightened Def Con from 0.00129519 to 0.0012952
Heightened Def Con from 0.00129678 to 0.00129678
Heightened Def Con from 0.00129825 to 0.00129825
Heightened Def Con from 0.00129978 to 0.00129978
Heightened Def Con from 0.00130131 to 0.00130131
Heightened Def Con from 0.00130278 to 0.00130278
Heightened Def Con from 0.00130436 to 0.00130436
Heightened Def Con from 0.00130578 to 0.00130578
Heightened Def Con from 0.00130742 to 0.00130742
Heightened Def Con from 0.00130878 to 0.00130878
Heightened Def Con from 0.00131047 to 0.00131048
Heightened Def Con from 0.00131178 to 0.00131178
Heightened Def Con from 0.00131353 to 0.00131353
Heightened Def Con from 0.00131478 to 0.00131478
Heightened Def Con from 0.00131658 to 0.00131658
Heightened Def Con from 0.00131779 to 0.00131779
Heightened Def Con from 0.00131963 to 0.00131963
Heightened Def Con from 0.00132079 to 0.00132079
Heightened Def Con from 0.00132268 to 0.00132268
Heightened Def Con from 0.0013238 to 0.0013238
Heightened Def Con from 0.00132573 to 0.00132573
Heightened Def Con from 0.00132681 to 0.00132681
Heightened Def Con from 0.00132878 to 0.00132878
Heightened Def Con from 0.00132982 to 0.00132982
Heightened Def Con from 0.00133182 to 0.00133182
Heightened Def Con from 0.00133283 to 0.00133283
Heightened Def Con from 0.00133487 to 0.00133487
Heightened Def Con from 0.00133585 to 0.00133585
Heightened Def Con from 0.00133791 to 0.00133791
Heightened Def Con from 0.00133887 to 0.00133887
Heightened Def Con from 0.00134094 to 0.00134094
Heightened Def Con from 0.00134189 to 0.00134189
Heightened Def Con from 0.00134398 to 0.00134398
Heightened Def Con from 0.00134491 to 0.00134491
Heightened Def Con from 0.00134701 to 0.00134701
Heightened Def Con from 0.00134793 to 0.00134793
Heightened Def Con from 0.00135004 to 0.00135004
Heightened Def Con from 0.00135096 to 0.00135096
Heightened Def Con from 0.00135307 to 0.00135307
Heightened Def Con from 0.00135399 to 0.00135399
Heightened Def Con from 0.00135609 to 0.00135609
Heightened Def Con from 0.00135702 to 0.00135703
Heightened Def Con from 0.00135911 to 0.00135911
Heightened Def Con from 0.00136006 to 0.00136006
Heightened Def Con from 0.00136213 to 0.00136213
Heightened Def Con from 0.0013631 to 0.0013631
Heightened Def Con from 0.00136515 to 0.00136515
Heightened Def Con from 0.00136614 to 0.00136614
Heightened Def Con from 0.00136816 to 0.00136817
Heightened Def Con from 0.00136918 to 0.00136918
Heightened Def Con from 0.00137117 to 0.00137117
Heightened Def Con from 0.00137223 to 0.00137223
Heightened Def Con from 0.00137418 to 0.00137418
Heightened Def Con from 0.00137527 to 0.00137528
Heightened Def Con from 0.00137719 to 0.00137719
Heightened Def Con from 0.00137832 to 0.00137832
Heightened Def Con from 0.0013802 to 0.0013802
Heightened Def Con from 0.00138138 to 0.00138138
Heightened Def Con from 0.0013832 to 0.00138321
Heightened Def Con from 0.00138443 to 0.00138443
Heightened Def Con from 0.00138621 to 0.00138621
Heightened Def Con from 0.00138748 to 0.00138748
Heightened Def Con from 0.00138921 to 0.00138921
Heightened Def Con from 0.00139054 to 0.00139054
Heightened Def Con from 0.00139221 to 0.00139221
Heightened Def Con from 0.00139359 to 0.00139359
Heightened Def Con from 0.00139521 to 0.00139521
Heightened Def Con from 0.00139665 to 0.00139665
Heightened Def Con from 0.00139821 to 0.00139821
Heightened Def Con from 0.0013997 to 0.0013997
Heightened Def Con from 0.00140121 to 0.00140121
Heightened Def Con from 0.00140276 to 0.00140276
Heightened Def Con from 0.00140421 to 0.00140421
Heightened Def Con from 0.00140581 to 0.00140581
Heightened Def Con from 0.00140721 to 0.00140721
Heightened Def Con from 0.00140887 to 0.00140887
Heightened Def Con from 0.00141021 to 0.00141021
Heightened Def Con from 0.00141192 to 0.00141192
Heightened Def Con from 0.00141321 to 0.00141321
Heightened Def Con from 0.00141498 to 0.00141498
Heightened Def Con from 0.00141622 to 0.00141622
Heightened Def Con from 0.00141803 to 0.00141803
Heightened Def Con from 0.00141922 to 0.00141922
Heightened Def Con from 0.00142108 to 0.00142108
Heightened Def Con from 0.00142223 to 0.00142223
Heightened Def Con from 0.00142413 to 0.00142413
Heightened Def Con from 0.00142523 to 0.00142523
Heightened Def Con from 0.00142718 to 0.00142718
Heightened Def Con from 0.00142824 to 0.00142824
Heightened Def Con from 0.00143023 to 0.00143023
Heightened Def Con from 0.00143126 to 0.00143126
Heightened Def Con from 0.00143327 to 0.00143327
Heightened Def Con from 0.00143427 to 0.00143427
Heightened Def Con from 0.00143631 to 0.00143631
Heightened Def Con from 0.00143729 to 0.00143729
Heightened Def Con from 0.00143935 to 0.00143935
Heightened Def Con from 0.00144031 to 0.00144031
Heightened Def Con from 0.00144239 to 0.00144239
Heightened Def Con from 0.00144333 to 0.00144333
Heightened Def Con from 0.00144542 to 0.00144542
Heightened Def Con from 0.00144635 to 0.00144635
Heightened Def Con from 0.00144845 to 0.00144845
Heightened Def Con from 0.00145148 to 0.00145148
Heightened Def Con from 0.00145241 to 0.00145241
Heightened Def Con from 0.00145451 to 0.00145451
Heightened Def Con from 0.00145544 to 0.00145544
Heightened Def Con from 0.00145753 to 0.00145754
Heightened Def Con from 0.00145848 to 0.00145848
Heightened Def Con from 0.00146152 to 0.00146153
Heightened Def Con from 0.00146358 to 0.00146358
Heightened Def Con from 0.00146456 to 0.00146456
Heightened Def Con from 0.0014676 to 0.0014676
Heightened Def Con from 0.00146961 to 0.00146961
Heightened Def Con from 0.00147065 to 0.00147065
Heightened Def Con from 0.00147262 to 0.00147262
Heightened Def Con from 0.00147369 to 0.0014737
Heightened Def Con from 0.00147563 to 0.00147563
Heightened Def Con from 0.00147674 to 0.00147674
Heightened Def Con from 0.00147863 to 0.00147863
Heightened Def Con from 0.00147979 to 0.00147979
Heightened Def Con from 0.00148164 to 0.00148164
Heightened Def Con from 0.00148284 to 0.00148284
Heightened Def Con from 0.00148464 to 0.00148464
Heightened Def Con from 0.00148589 to 0.0014859
Heightened Def Con from 0.00148765 to 0.00148765
Heightened Def Con from 0.00148895 to 0.00148896
Heightened Def Con from 0.00149065 to 0.00149065
Heightened Def Con from 0.00149201 to 0.00149201
Heightened Def Con from 0.00149365 to 0.00149365
Heightened Def Con from 0.00149506 to 0.00149506
Heightened Def Con from 0.00149665 to 0.00149665
Heightened Def Con from 0.00149812 to 0.00149812
Heightened Def Con from 0.00149965 to 0.00149965
Heightened Def Con from 0.00150117 to 0.00150118
Heightened Def Con from 0.00150265 to 0.00150265
Heightened Def Con from 0.00150423 to 0.00150424
Heightened Def Con from 0.00150565 to 0.00150565
Heightened Def Con from 0.00150729 to 0.00150729
Heightened Def Con from 0.00150865 to 0.00150865
Heightened Def Con from 0.00151034 to 0.00151034
Heightened Def Con from 0.00151165 to 0.00151165
Heightened Def Con from 0.00151339 to 0.0015134
Heightened Def Con from 0.00151466 to 0.00151466
Heightened Def Con from 0.00151645 to 0.00151645
Heightened Def Con from 0.00151766 to 0.00151766
Heightened Def Con from 0.0015195 to 0.0015195
Heightened Def Con from 0.00152066 to 0.00152067
Heightened Def Con from 0.00152255 to 0.00152255
Heightened Def Con from 0.00152367 to 0.00152367
Heightened Def Con from 0.0015256 to 0.0015256
Heightened Def Con from 0.00152668 to 0.00152668
Heightened Def Con from 0.00152865 to 0.00152865
Heightened Def Con from 0.00152969 to 0.00152969
Heightened Def Con from 0.00153169 to 0.00153169
Heightened Def Con from 0.0015327 to 0.0015327
Heightened Def Con from 0.00153473 to 0.00153473
Heightened Def Con from 0.00153572 to 0.00153572
Heightened Def Con from 0.00153777 to 0.00153777
Heightened Def Con from 0.00153874 to 0.00153874
Heightened Def Con from 0.00154081 to 0.00154081
Heightened Def Con from 0.00154176 to 0.00154176
Heightened Def Con from 0.00154385 to 0.00154385
Heightened Def Con from 0.00154478 to 0.00154478
Heightened Def Con from 0.00154688 to 0.00154688
Heightened Def Con from 0.0015478 to 0.0015478
Heightened Def Con from 0.00154991 to 0.00154991
Heightened Def Con from 0.00155083 to 0.00155083
Heightened Def Con from 0.00155294 to 0.00155294
Heightened Def Con from 0.00155386 to 0.00155386
Heightened Def Con from 0.00155596 to 0.00155596
Heightened Def Con from 0.00155898 to 0.00155898
Heightened Def Con from 0.001562 to 0.001562
Heightened Def Con from 0.00156297 to 0.00156297
Heightened Def Con from 0.00156502 to 0.00156502
Heightened Def Con from 0.00156601 to 0.00156601
Heightened Def Con from 0.00156803 to 0.00156803
Heightened Def Con from 0.00156905 to 0.00156905
Heightened Def Con from 0.00157105 to 0.00157105
Heightened Def Con from 0.0015721 to 0.00157211
Heightened Def Con from 0.00157406 to 0.00157406
Heightened Def Con from 0.00157515 to 0.00157515
Heightened Def Con from 0.00157707 to 0.00157707
Heightened Def Con from 0.0015782 to 0.0015782
Heightened Def Con from 0.00158007 to 0.00158007
Heightened Def Con from 0.00158125 to 0.00158125
Heightened Def Con from 0.00158308 to 0.00158308
Heightened Def Con from 0.0015843 to 0.0015843
Heightened Def Con from 0.00158608 to 0.00158608
Heightened Def Con from 0.00158735 to 0.00158735
Heightened Def Con from 0.00158908 to 0.00158908
Heightened Def Con from 0.00159041 to 0.00159041
Heightened Def Con from 0.00159208 to 0.00159209
Heightened Def Con from 0.00159346 to 0.00159347
Heightened Def Con from 0.00159509 to 0.00159509
Heightened Def Con from 0.00159652 to 0.00159652
Heightened Def Con from 0.00159809 to 0.00159809
Heightened Def Con from 0.00159958 to 0.00159958
Heightened Def Con from 0.00160109 to 0.00160109
Heightened Def Con from 0.00160263 to 0.00160263
Heightened Def Con from 0.00160409 to 0.00160409
Heightened Def Con from 0.00160569 to 0.00160569
Heightened Def Con from 0.00160709 to 0.00160709
Heightened Def Con from 0.00160874 to 0.00160874
Heightened Def Con from 0.00161009 to 0.00161009
Heightened Def Con from 0.0016118 to 0.0016118
Heightened Def Con from 0.00161309 to 0.00161309
Heightened Def Con from 0.00161485 to 0.00161485
Heightened Def Con from 0.00161609 to 0.00161609
Heightened Def Con from 0.00161791 to 0.00161791
Heightened Def Con from 0.0016191 to 0.0016191
Heightened Def Con from 0.00162096 to 0.00162096
Heightened Def Con from 0.0016221 to 0.0016221
Heightened Def Con from 0.00162401 to 0.00162401
Heightened Def Con from 0.00162511 to 0.00162512
Heightened Def Con from 0.00162705 to 0.00162705
Heightened Def Con from 0.00162812 to 0.00162812
Heightened Def Con from 0.0016301 to 0.0016301
Heightened Def Con from 0.00163113 to 0.00163113
Heightened Def Con from 0.00163314 to 0.00163314
Heightened Def Con from 0.00163415 to 0.00163415
Heightened Def Con from 0.00163619 to 0.00163619
Heightened Def Con from 0.00163717 to 0.00163717
Heightened Def Con from 0.00163923 to 0.00163923
Heightened Def Con from 0.00164019 to 0.00164019
Heightened Def Con from 0.00164227 to 0.00164227
Heightened Def Con from 0.00164321 to 0.00164321
Heightened Def Con from 0.0016453 to 0.0016453
Heightened Def Con from 0.00164623 to 0.00164623
Heightened Def Con from 0.00164833 to 0.00164833
Heightened Def Con from 0.00164926 to 0.00164926
Heightened Def Con from 0.00165136 to 0.00165136
Heightened Def Con from 0.00165229 to 0.0016523
Heightened Def Con from 0.00165439 to 0.00165439
Heightened Def Con from 0.00165532 to 0.00165532
Heightened Def Con from 0.00165741 to 0.00165741
Heightened Def Con from 0.00165836 to 0.00165836
Heightened Def Con from 0.00166043 to 0.00166043
Heightened Def Con from 0.0016614 to 0.0016614
Heightened Def Con from 0.00166345 to 0.00166345
Heightened Def Con from 0.00166444 to 0.00166444
Heightened Def Con from 0.00166647 to 0.00166647
Heightened Def Con from 0.00166748 to 0.00166748
Heightened Def Con from 0.00166948 to 0.00166948
Heightened Def Con from 0.00167052 to 0.00167052
Heightened Def Con from 0.0016725 to 0.0016725
Heightened Def Con from 0.00167357 to 0.00167358
Heightened Def Con from 0.00167551 to 0.00167551
Heightened Def Con from 0.00167662 to 0.00167662
Heightened Def Con from 0.00167851 to 0.00167852
Heightened Def Con from 0.00167967 to 0.00167967
Heightened Def Con from 0.00168152 to 0.00168152
Heightened Def Con from 0.00168272 to 0.00168272
Heightened Def Con from 0.00168452 to 0.00168452
Heightened Def Con from 0.00168577 to 0.00168578
Heightened Def Con from 0.00168753 to 0.00168753
Heightened Def Con from 0.00168883 to 0.00168883
Heightened Def Con from 0.00169053 to 0.00169053
Heightened Def Con from 0.00169188 to 0.00169188
Heightened Def Con from 0.00169353 to 0.00169353
Heightened Def Con from 0.00169494 to 0.00169494
Heightened Def Con from 0.00169653 to 0.00169653
Heightened Def Con from 0.00169799 to 0.00169799
Heightened Def Con from 0.00169953 to 0.00169953
Heightened Def Con from 0.00170105 to 0.00170105
Heightened Def Con from 0.00170253 to 0.00170253
Heightened Def Con from 0.00170411 to 0.00170411
Heightened Def Con from 0.00170553 to 0.00170553
Heightened Def Con from 0.00170716 to 0.00170716
Heightened Def Con from 0.00170853 to 0.00170853
Heightened Def Con from 0.00171022 to 0.00171022
Heightened Def Con from 0.00171153 to 0.00171153
Heightened Def Con from 0.00171327 to 0.00171327
Heightened Def Con from 0.00171454 to 0.00171454
Heightened Def Con from 0.00171633 to 0.00171633
Heightened Def Con from 0.00171754 to 0.00171754
Heightened Def Con from 0.00171938 to 0.00171938
Heightened Def Con from 0.00172054 to 0.00172055
Heightened Def Con from 0.00172243 to 0.00172243
Heightened Def Con from 0.00172355 to 0.00172355
Heightened Def Con from 0.00172548 to 0.00172548
Heightened Def Con from 0.00172656 to 0.00172656
Heightened Def Con from 0.00172852 to 0.00172852
Heightened Def Con from 0.00172957 to 0.00172957
Heightened Def Con from 0.00173157 to 0.00173157
Heightened Def Con from 0.00173258 to 0.00173258
Heightened Def Con from 0.00173461 to 0.00173461
Heightened Def Con from 0.0017356 to 0.0017356
Heightened Def Con from 0.00173765 to 0.00173765
Heightened Def Con from 0.00173861 to 0.00173861
Heightened Def Con from 0.00174069 to 0.00174069
Heightened Def Con from 0.00174163 to 0.00174163
Heightened Def Con from 0.00174372 to 0.00174372
Heightened Def Con from 0.00174465 to 0.00174466
Heightened Def Con from 0.00174675 to 0.00174675
Heightened Def Con from 0.00174768 to 0.00174768
Heightened Def Con from 0.00174978 to 0.00174978
Heightened Def Con from 0.00175071 to 0.00175071
Heightened Def Con from 0.00175281 to 0.00175281
Heightened Def Con from 0.00175374 to 0.00175374
Heightened Def Con from 0.00175584 to 0.00175584
Heightened Def Con from 0.00175677 to 0.00175677
Heightened Def Con from 0.00175886 to 0.00175886
Heightened Def Con from 0.00175981 to 0.00175981
Heightened Def Con from 0.00176188 to 0.00176188
Heightened Def Con from 0.00176284 to 0.00176284
Heightened Def Con from 0.00176489 to 0.00176489
Heightened Def Con from 0.00176588 to 0.00176589
Heightened Def Con from 0.00176791 to 0.00176791
Heightened Def Con from 0.00176893 to 0.00176893
Heightened Def Con from 0.00177092 to 0.00177092
Heightened Def Con from 0.00177197 to 0.00177197
Heightened Def Con from 0.00177393 to 0.00177393
Heightened Def Con from 0.00177502 to 0.00177502
Heightened Def Con from 0.00177694 to 0.00177694
Heightened Def Con from 0.00177807 to 0.00177807
Heightened Def Con from 0.00177995 to 0.00177995
Heightened Def Con from 0.00178112 to 0.00178112
Heightened Def Con from 0.00178417 to 0.00178417
Heightened Def Con from 0.00178596 to 0.00178596
Heightened Def Con from 0.00178722 to 0.00178722
Heightened Def Con from 0.00178896 to 0.00178896
Heightened Def Con from 0.00179028 to 0.00179028
Heightened Def Con from 0.00179196 to 0.00179196
Heightened Def Con from 0.00179333 to 0.00179333
Heightened Def Con from 0.00179496 to 0.00179496
Heightened Def Con from 0.00179639 to 0.00179639
Heightened Def Con from 0.00179796 to 0.00179796
Heightened Def Con from 0.00179945 to 0.00179945
Heightened Def Con from 0.00180096 to 0.00180096
Heightened Def Con from 0.0018025 to 0.0018025
Heightened Def Con from 0.00180396 to 0.00180396
Heightened Def Con from 0.00180556 to 0.00180556
Heightened Def Con from 0.00180696 to 0.00180696
Heightened Def Con from 0.00180861 to 0.00180861
Heightened Def Con from 0.00180996 to 0.00180996
Heightened Def Con from 0.00181167 to 0.00181167
Heightened Def Con from 0.00181296 to 0.00181296
Heightened Def Con from 0.00181472 to 0.00181472
Heightened Def Con from 0.00181597 to 0.00181597
Heightened Def Con from 0.00181778 to 0.00181778
Heightened Def Con from 0.00181897 to 0.00181898
Heightened Def Con from 0.00182083 to 0.00182083
Heightened Def Con from 0.00182198 to 0.00182198
Heightened Def Con from 0.00182388 to 0.00182388
Heightened Def Con from 0.00182498 to 0.00182499
Heightened Def Con from 0.00182693 to 0.00182693
Heightened Def Con from 0.00182799 to 0.00182799
Heightened Def Con from 0.00182997 to 0.00182997
Heightened Def Con from 0.00183101 to 0.00183101
Heightened Def Con from 0.00183302 to 0.00183302
Heightened Def Con from 0.00183402 to 0.00183403
Heightened Def Con from 0.00183606 to 0.00183606
Heightened Def Con from 0.00183704 to 0.00183704
Heightened Def Con from 0.0018391 to 0.0018391
Heightened Def Con from 0.00184214 to 0.00184214
Heightened Def Con from 0.00184308 to 0.00184308
Heightened Def Con from 0.00184517 to 0.00184517
Heightened Def Con from 0.0018461 to 0.0018461
Heightened Def Con from 0.0018482 to 0.0018482
Heightened Def Con from 0.00184913 to 0.00184913
Heightened Def Con from 0.00185123 to 0.00185123
Heightened Def Con from 0.00185216 to 0.00185217
Heightened Def Con from 0.00185426 to 0.00185426
Heightened Def Con from 0.00185519 to 0.00185519
Heightened Def Con from 0.00185728 to 0.00185728
Heightened Def Con from 0.00185823 to 0.00185823
Heightened Def Con from 0.00186031 to 0.00186031
Heightened Def Con from 0.00186127 to 0.00186127
Heightened Def Con from 0.00186333 to 0.00186333
Heightened Def Con from 0.00186431 to 0.00186431
Heightened Def Con from 0.00186634 to 0.00186634
Heightened Def Con from 0.00186735 to 0.00186735
Heightened Def Con from 0.00186936 to 0.00186936
Heightened Def Con from 0.00187039 to 0.0018704
Heightened Def Con from 0.00187237 to 0.00187237
Heightened Def Con from 0.00187344 to 0.00187344
Heightened Def Con from 0.00187538 to 0.00187538
Heightened Def Con from 0.00187649 to 0.00187649
Heightened Def Con from 0.00187838 to 0.00187839
Heightened Def Con from 0.00187954 to 0.00187954
Heightened Def Con from 0.00188139 to 0.00188139
Heightened Def Con from 0.00188259 to 0.00188259
Heightened Def Con from 0.00188439 to 0.0018844
Heightened Def Con from 0.00188564 to 0.00188564
Heightened Def Con from 0.0018874 to 0.0018874
Heightened Def Con from 0.0018887 to 0.0018887
Heightened Def Con from 0.0018904 to 0.0018904
Heightened Def Con from 0.00189175 to 0.00189175
Heightened Def Con from 0.0018934 to 0.0018934
Heightened Def Con from 0.00189481 to 0.00189481
Heightened Def Con from 0.0018964 to 0.0018964
Heightened Def Con from 0.00189786 to 0.00189786
Heightened Def Con from 0.0018994 to 0.0018994
Heightened Def Con from 0.0019024 to 0.0019024
Heightened Def Con from 0.00190397 to 0.00190398
Heightened Def Con from 0.0019054 to 0.0019054
Heightened Def Con from 0.00190703 to 0.00190703
Heightened Def Con from 0.0019084 to 0.0019084
Heightened Def Con from 0.00191008 to 0.00191009
Heightened Def Con from 0.0019114 to 0.0019114
Heightened Def Con from 0.00191314 to 0.00191314
Heightened Def Con from 0.0019144 to 0.0019144
Heightened Def Con from 0.00191619 to 0.00191619
Heightened Def Con from 0.00191741 to 0.00191741
Heightened Def Con from 0.00191924 to 0.00191924
Heightened Def Con from 0.00192041 to 0.00192041
Heightened Def Con from 0.00192229 to 0.00192229
Heightened Def Con from 0.00192342 to 0.00192342
Heightened Def Con from 0.00192534 to 0.00192534
Heightened Def Con from 0.00192642 to 0.00192642
Heightened Def Con from 0.00192839 to 0.00192839
Heightened Def Con from 0.00192943 to 0.00192943
Heightened Def Con from 0.00193143 to 0.00193143
Heightened Def Con from 0.00193245 to 0.00193245
Heightened Def Con from 0.00193447 to 0.00193447
Heightened Def Con from 0.00193546 to 0.00193546
Heightened Def Con from 0.00193751 to 0.00193751
Heightened Def Con from 0.00193848 to 0.00193848
Heightened Def Con from 0.00194055 to 0.00194055
Heightened Def Con from 0.0019415 to 0.0019415
Heightened Def Con from 0.00194359 to 0.00194359
Heightened Def Con from 0.00194452 to 0.00194452
Heightened Def Con from 0.00194662 to 0.00194662
Heightened Def Con from 0.00194755 to 0.00194755
Heightened Def Con from 0.00194965 to 0.00194965
Heightened Def Con from 0.00195057 to 0.00195057
Heightened Def Con from 0.0019536 to 0.0019536
Heightened Def Con from 0.0019557 to 0.0019557
Heightened Def Con from 0.00195663 to 0.00195664
Heightened Def Con from 0.00195872 to 0.00195872
Heightened Def Con from 0.00195967 to 0.00195967
Heightened Def Con from 0.00196174 to 0.00196174
Heightened Def Con from 0.00196271 to 0.00196271
Heightened Def Con from 0.00196476 to 0.00196476
Heightened Def Con from 0.00196575 to 0.00196575
Heightened Def Con from 0.00196777 to 0.00196777
Heightened Def Con from 0.00197079 to 0.00197079
Heightened Def Con from 0.00197184 to 0.00197184
Heightened Def Con from 0.0019738 to 0.0019738
Heightened Def Con from 0.00197488 to 0.00197488
Heightened Def Con from 0.0019768 to 0.0019768
Heightened Def Con from 0.00197793 to 0.00197793
Heightened Def Con from 0.00197981 to 0.00197981
Heightened Def Con from 0.00198098 to 0.00198098
Heightened Def Con from 0.00198281 to 0.00198282
Heightened Def Con from 0.00198403 to 0.00198403
Heightened Def Con from 0.00198582 to 0.00198582
Heightened Def Con from 0.00198708 to 0.00198708
Heightened Def Con from 0.00198882 to 0.00198882
Heightened Def Con from 0.00199014 to 0.00199014
Heightened Def Con from 0.00199182 to 0.00199182
Heightened Def Con from 0.00199319 to 0.00199319
Heightened Def Con from 0.00199482 to 0.00199482
Heightened Def Con from 0.00199625 to 0.00199625
Heightened Def Con from 0.00199782 to 0.00199782
Heightened Def Con from 0.0019993 to 0.0019993
Heightened Def Con from 0.00200082 to 0.00200082
Heightened Def Con from 0.00200236 to 0.00200236
Heightened Def Con from 0.00200382 to 0.00200382
Heightened Def Con from 0.00200542 to 0.00200542
Heightened Def Con from 0.00200682 to 0.00200682
Heightened Def Con from 0.00200847 to 0.00200847
Heightened Def Con from 0.00200982 to 0.00200982
Heightened Def Con from 0.00201153 to 0.00201153
Heightened Def Con from 0.00201282 to 0.00201282
Heightened Def Con from 0.00201458 to 0.00201458
Heightened Def Con from 0.00201583 to 0.00201583
Heightened Def Con from 0.00201763 to 0.00201764
Heightened Def Con from 0.00201883 to 0.00201883
Heightened Def Con from 0.00202069 to 0.00202069
Heightened Def Con from 0.00202184 to 0.00202184
Heightened Def Con from 0.00202374 to 0.00202374
Heightened Def Con from 0.00202484 to 0.00202484
Heightened Def Con from 0.00202678 to 0.00202679
Heightened Def Con from 0.00202785 to 0.00202785
Heightened Def Con from 0.00202983 to 0.00202983
Heightened Def Con from 0.00203087 to 0.00203087
Heightened Def Con from 0.00203288 to 0.00203288
Heightened Def Con from 0.00203388 to 0.00203388
Heightened Def Con from 0.00203592 to 0.00203592
Heightened Def Con from 0.00203896 to 0.00203896
Heightened Def Con from 0.00203992 to 0.00203992
Heightened Def Con from 0.002042 to 0.002042
Heightened Def Con from 0.00204294 to 0.00204295
Heightened Def Con from 0.00204503 to 0.00204503
Heightened Def Con from 0.00204596 to 0.00204597
Heightened Def Con from 0.00204806 to 0.00204806
Heightened Def Con from 0.00204899 to 0.00204899
Heightened Def Con from 0.00205109 to 0.00205109
Heightened Def Con from 0.00205202 to 0.00205202
Heightened Def Con from 0.00205506 to 0.00205506
Heightened Def Con from 0.00205715 to 0.00205715
Heightened Def Con from 0.00205809 to 0.00205809
Heightened Def Con from 0.00206017 to 0.00206017
Heightened Def Con from 0.00206113 to 0.00206113
Heightened Def Con from 0.00206319 to 0.00206319
Heightened Def Con from 0.00206417 to 0.00206418
Heightened Def Con from 0.0020662 to 0.0020662
Heightened Def Con from 0.00206721 to 0.00206721
Heightened Def Con from 0.00206922 to 0.00206922
Heightened Def Con from 0.00207026 to 0.00207026
Heightened Def Con from 0.00207223 to 0.00207223
Heightened Def Con from 0.0020733 to 0.0020733
Heightened Def Con from 0.00207524 to 0.00207524
Heightened Def Con from 0.00207635 to 0.00207635
Heightened Def Con from 0.00207825 to 0.00207825
Heightened Def Con from 0.0020794 to 0.0020794
Heightened Def Con from 0.00208126 to 0.00208126
Heightened Def Con from 0.00208245 to 0.00208245
Heightened Def Con from 0.00208426 to 0.00208426
Heightened Def Con from 0.0020855 to 0.00208551
Heightened Def Con from 0.00208726 to 0.00208726
Heightened Def Con from 0.00208856 to 0.00208856
Heightened Def Con from 0.00209027 to 0.00209027
Heightened Def Con from 0.00209162 to 0.00209162
Heightened Def Con from 0.00209327 to 0.00209327
Heightened Def Con from 0.00209467 to 0.00209467
Heightened Def Con from 0.00209627 to 0.00209627
Heightened Def Con from 0.00209773 to 0.00209773
Heightened Def Con from 0.00209927 to 0.00209927
Heightened Def Con from 0.00210078 to 0.00210079
Heightened Def Con from 0.00210227 to 0.00210227
Heightened Def Con from 0.00210384 to 0.00210384
Heightened Def Con from 0.00210527 to 0.00210527
Heightened Def Con from 0.0021069 to 0.0021069
Heightened Def Con from 0.00210827 to 0.00210827
Heightened Def Con from 0.00210995 to 0.00210995
Heightened Def Con from 0.00211127 to 0.00211127
Heightened Def Con from 0.00211301 to 0.00211301
Heightened Def Con from 0.00211427 to 0.00211427
Heightened Def Con from 0.00211606 to 0.00211606
Heightened Def Con from 0.00211728 to 0.00211728
Heightened Def Con from 0.00211911 to 0.00211911
Heightened Def Con from 0.00212028 to 0.00212028
Heightened Def Con from 0.00212216 to 0.00212217
Heightened Def Con from 0.00212329 to 0.00212329
Heightened Def Con from 0.00212521 to 0.00212521
Heightened Def Con from 0.00212629 to 0.00212629
Heightened Def Con from 0.00212826 to 0.00212826
Heightened Def Con from 0.0021293 to 0.0021293
Heightened Def Con from 0.0021313 to 0.0021313
Heightened Def Con from 0.00213232 to 0.00213232
Heightened Def Con from 0.00213434 to 0.00213434
Heightened Def Con from 0.00213533 to 0.00213533
Heightened Def Con from 0.00213738 to 0.00213738
Heightened Def Con from 0.00213835 to 0.00213835
Heightened Def Con from 0.00214042 to 0.00214042
Heightened Def Con from 0.00214137 to 0.00214137
Heightened Def Con from 0.00214346 to 0.00214346
Heightened Def Con from 0.00214439 to 0.00214439
Heightened Def Con from 0.00214649 to 0.00214649
Heightened Def Con from 0.00214742 to 0.00214742
Heightened Def Con from 0.00214952 to 0.00214952
Heightened Def Con from 0.00215044 to 0.00215044
Heightened Def Con from 0.00215255 to 0.00215255
Heightened Def Con from 0.00215347 to 0.00215347
Heightened Def Con from 0.00215557 to 0.00215557
Heightened Def Con from 0.00215651 to 0.00215651
Heightened Def Con from 0.00215859 to 0.00215859
Heightened Def Con from 0.00215954 to 0.00215954
Heightened Def Con from 0.00216161 to 0.00216161
Heightened Def Con from 0.00216258 to 0.00216258
Heightened Def Con from 0.00216463 to 0.00216463
Heightened Def Con from 0.00216562 to 0.00216562
Heightened Def Con from 0.00216764 to 0.00216764
Heightened Def Con from 0.00216866 to 0.00216866
Heightened Def Con from 0.00217065 to 0.00217065
Heightened Def Con from 0.0021717 to 0.0021717
Heightened Def Con from 0.00217366 to 0.00217367
Heightened Def Con from 0.00217475 to 0.00217475
Heightened Def Con from 0.00217667 to 0.00217667
Heightened Def Con from 0.0021778 to 0.0021778
Heightened Def Con from 0.00217968 to 0.00217968
Heightened Def Con from 0.00218085 to 0.00218085
Heightened Def Con from 0.00218268 to 0.00218268
Heightened Def Con from 0.0021839 to 0.0021839
Heightened Def Con from 0.00218569 to 0.00218569
Heightened Def Con from 0.00218695 to 0.00218695
Heightened Def Con from 0.00218869 to 0.00218869
Heightened Def Con from 0.00219001 to 0.00219001
Heightened Def Con from 0.00219169 to 0.00219169
Heightened Def Con from 0.00219469 to 0.00219469
Heightened Def Con from 0.00219612 to 0.00219612
Heightened Def Con from 0.00219769 to 0.00219769
Heightened Def Con from 0.00219918 to 0.00219918
Heightened Def Con from 0.00220069 to 0.00220069
Heightened Def Con from 0.00220223 to 0.00220223
Heightened Def Con from 0.00220369 to 0.00220369
Heightened Def Con from 0.00220529 to 0.00220529
Heightened Def Con from 0.00220669 to 0.00220669
Heightened Def Con from 0.00220834 to 0.00220835
Heightened Def Con from 0.0022097 to 0.0022097
Heightened Def Con from 0.0022114 to 0.0022114
Heightened Def Con from 0.0022127 to 0.0022127
Heightened Def Con from 0.00221445 to 0.00221445
Heightened Def Con from 0.0022157 to 0.00221571
Heightened Def Con from 0.00221751 to 0.00221751
Heightened Def Con from 0.00221871 to 0.00221871
Heightened Def Con from 0.00222056 to 0.00222056
Heightened Def Con from 0.00222171 to 0.00222171
Heightened Def Con from 0.00222361 to 0.00222361
Heightened Def Con from 0.00222472 to 0.00222472
Heightened Def Con from 0.00222666 to 0.00222666
Heightened Def Con from 0.00222773 to 0.00222773
Heightened Def Con from 0.0022297 to 0.0022297
Heightened Def Con from 0.00223074 to 0.00223074
Heightened Def Con from 0.00223275 to 0.00223275
[...]
Heightened Def Con from 0.00438549 to 0.00438549
Heightened Def Con from 0.00438725 to 0.00438725
Heightened Def Con from 0.00438854 to 0.00438854
Heightened Def Con from 0.00439025 to 0.00439025
Heightened Def Con from 0.0043916 to 0.0043916
Heightened Def Con from 0.00439325 to 0.00439325
Heightened Def Con from 0.00439465 to 0.00439465
Heightened Def Con from 0.00439625 to 0.00439626
Heightened Def Con from 0.00439771 to 0.00439771
Heightened Def Con from 0.00439925 to 0.00439925
Heightened Def Con from 0.00440077 to 0.00440077
Heightened Def Con from 0.00440225 to 0.00440225
Heightened Def Con from 0.00440382 to 0.00440382
Heightened Def Con from 0.00440525 to 0.00440526
Heightened Def Con from 0.00440688 to 0.00440688
Heightened Def Con from 0.00440826 to 0.00440826
Heightened Def Con from 0.00440993 to 0.00440993
Heightened Def Con from 0.00441126 to 0.00441126
Heightened Def Con from 0.00441299 to 0.00441299
Heightened Def Con from 0.00441426 to 0.00441427
Heightened Def Con from 0.00441604 to 0.00441604
Heightened Def Con from 0.00441726 to 0.00441726
Heightened Def Con from 0.00441909 to 0.00441909
Heightened Def Con from 0.00442027 to 0.00442027
Heightened Def Con from 0.00442215 to 0.00442215
Heightened Def Con from 0.00442328 to 0.00442328
Heightened Def Con from 0.00442519 to 0.00442519
Heightened Def Con from 0.00442628 to 0.00442628
Heightened Def Con from 0.00442824 to 0.00442824
Heightened Def Con from 0.00442929 to 0.00442929
Heightened Def Con from 0.00443129 to 0.00443129
Heightened Def Con from 0.00443231 to 0.00443231
Heightened Def Con from 0.00443433 to 0.00443433
Heightened Def Con from 0.00443532 to 0.00443532
Heightened Def Con from 0.00443737 to 0.00443737
Heightened Def Con from 0.00443834 to 0.00443834
Heightened Def Con from 0.00444041 to 0.00444041
Heightened Def Con from 0.00444136 to 0.00444136
Heightened Def Con from 0.00444345 to 0.00444345
Heightened Def Con from 0.00444439 to 0.00444439
Heightened Def Con from 0.00444648 to 0.00444648
Heightened Def Con from 0.00444741 to 0.00444742
Heightened Def Con from 0.00444951 to 0.00444951
Heightened Def Con from 0.00445044 to 0.00445044
Heightened Def Con from 0.00445254 to 0.00445254
Heightened Def Con from 0.00445347 to 0.00445347
Heightened Def Con from 0.00445557 to 0.00445557
Heightened Def Con from 0.0044565 to 0.00445651
Heightened Def Con from 0.00445859 to 0.00445859
Heightened Def Con from 0.00445954 to 0.00445954
Heightened Def Con from 0.00446161 to 0.00446161
Heightened Def Con from 0.00446258 to 0.00446258
Heightened Def Con from 0.00446463 to 0.00446463
Heightened Def Con from 0.00446562 to 0.00446562
Heightened Def Con from 0.00446765 to 0.00446765
Heightened Def Con from 0.00446866 to 0.00446867
Heightened Def Con from 0.00447066 to 0.00447066
Heightened Def Con from 0.00447171 to 0.00447171
Heightened Def Con from 0.00447367 to 0.00447367
Heightened Def Con from 0.00447476 to 0.00447476
Heightened Def Con from 0.00447668 to 0.00447668
Heightened Def Con from 0.00447781 to 0.00447781
Heightened Def Con from 0.00447968 to 0.00447968
Heightened Def Con from 0.00448086 to 0.00448086
Heightened Def Con from 0.00448269 to 0.00448269
Heightened Def Con from 0.00448391 to 0.00448391
Heightened Def Con from 0.00448569 to 0.00448569
Heightened Def Con from 0.00448696 to 0.00448696
Heightened Def Con from 0.00448869 to 0.00448869
Heightened Def Con from 0.00449002 to 0.00449002
Heightened Def Con from 0.00449307 to 0.00449307
Heightened Def Con from 0.0044947 to 0.0044947
Heightened Def Con from 0.00449613 to 0.00449613
Heightened Def Con from 0.0044977 to 0.0044977
Heightened Def Con from 0.00449918 to 0.00449918
Heightened Def Con from 0.0045007 to 0.0045007
Heightened Def Con from 0.00450224 to 0.00450224
Heightened Def Con from 0.00450369 to 0.0045037
Heightened Def Con from 0.00450529 to 0.00450529
Heightened Def Con from 0.00450669 to 0.0045067
Heightened Def Con from 0.00450835 to 0.00450835
Heightened Def Con from 0.0045097 to 0.0045097
Heightened Def Con from 0.0045114 to 0.0045114
Heightened Def Con from 0.0045127 to 0.0045127
Heightened Def Con from 0.00451445 to 0.00451446
Heightened Def Con from 0.0045157 to 0.0045157
Heightened Def Con from 0.00451751 to 0.00451751
Heightened Def Con from 0.0045187 to 0.0045187
Heightened Def Con from 0.00452056 to 0.00452056
Heightened Def Con from 0.00452171 to 0.00452171
Heightened Def Con from 0.00452361 to 0.00452361
Heightened Def Con from 0.00452471 to 0.00452472
Heightened Def Con from 0.00452666 to 0.00452666
Heightened Def Con from 0.00452772 to 0.00452772
Heightened Def Con from 0.0045297 to 0.0045297
Heightened Def Con from 0.00453074 to 0.00453074
Heightened Def Con from 0.00453275 to 0.00453275
Heightened Def Con from 0.00453375 to 0.00453375
Heightened Def Con from 0.00453579 to 0.00453579
Heightened Def Con from 0.00453676 to 0.00453676
Heightened Def Con from 0.00453883 to 0.00453883
Heightened Def Con from 0.00453978 to 0.00453978
Heightened Def Con from 0.00454186 to 0.00454186
Heightened Def Con from 0.0045428 to 0.0045428
Heightened Def Con from 0.0045449 to 0.0045449
Heightened Def Con from 0.00454582 to 0.00454583
Heightened Def Con from 0.00454793 to 0.00454793
Heightened Def Con from 0.00454885 to 0.00454885
Heightened Def Con from 0.00455096 to 0.00455096
Heightened Def Con from 0.00455188 to 0.00455188
Heightened Def Con from 0.00455398 to 0.00455398
Heightened Def Con from 0.00455491 to 0.00455491
Heightened Def Con from 0.00455701 to 0.00455701
Heightened Def Con from 0.00455795 to 0.00455795
Heightened Def Con from 0.00456003 to 0.00456003
Heightened Def Con from 0.00456098 to 0.00456098
Heightened Def Con from 0.00456304 to 0.00456304
Heightened Def Con from 0.00456402 to 0.00456402
Heightened Def Con from 0.00456606 to 0.00456606
Heightened Def Con from 0.00456706 to 0.00456706
Heightened Def Con from 0.00456907 to 0.00456907
Heightened Def Con from 0.0045701 to 0.0045701
Heightened Def Con from 0.00457208 to 0.00457208
Heightened Def Con from 0.00457315 to 0.00457315
Heightened Def Con from 0.00457509 to 0.00457509
Heightened Def Con from 0.0045762 to 0.0045762
Heightened Def Con from 0.0045781 to 0.00457811
Heightened Def Con from 0.00457924 to 0.00457924
Heightened Def Con from 0.0045811 to 0.0045811
Heightened Def Con from 0.0045823 to 0.0045823
Heightened Def Con from 0.00458411 to 0.00458411
Heightened Def Con from 0.00458535 to 0.00458535
Heightened Def Con from 0.00458711 to 0.00458711
Heightened Def Con from 0.0045884 to 0.0045884
Heightened Def Con from 0.00459012 to 0.00459012
Heightened Def Con from 0.00459146 to 0.00459146
Heightened Def Con from 0.00459452 to 0.00459452
Heightened Def Con from 0.00459612 to 0.00459612
Heightened Def Con from 0.00459757 to 0.00459757
Heightened Def Con from 0.00459912 to 0.00459912
Heightened Def Con from 0.00460063 to 0.00460063
Heightened Def Con from 0.00460212 to 0.00460212
Heightened Def Con from 0.00460368 to 0.00460368
Heightened Def Con from 0.00460512 to 0.00460512
Heightened Def Con from 0.00460674 to 0.00460674
Heightened Def Con from 0.00460812 to 0.00460812
Heightened Def Con from 0.00460979 to 0.0046098
Heightened Def Con from 0.00461112 to 0.00461112
Heightened Def Con from 0.00461285 to 0.00461285
Heightened Def Con from 0.0046159 to 0.0046159
Heightened Def Con from 0.00461713 to 0.00461713
Heightened Def Con from 0.00461896 to 0.00461896
Heightened Def Con from 0.00462013 to 0.00462013
Heightened Def Con from 0.00462201 to 0.00462201
Heightened Def Con from 0.00462314 to 0.00462314
Heightened Def Con from 0.00462506 to 0.00462506
Heightened Def Con from 0.00462615 to 0.00462615
Heightened Def Con from 0.0046281 to 0.0046281
Heightened Def Con from 0.00462916 to 0.00462916
Heightened Def Con from 0.00463115 to 0.00463115
Heightened Def Con from 0.00463217 to 0.00463218
Heightened Def Con from 0.00463419 to 0.00463419
Heightened Def Con from 0.00463519 to 0.00463519
Heightened Def Con from 0.00463723 to 0.00463723
Heightened Def Con from 0.0046382 to 0.0046382
Heightened Def Con from 0.00464027 to 0.00464027
Heightened Def Con from 0.00464122 to 0.00464122
Heightened Def Con from 0.00464331 to 0.00464331
Heightened Def Con from 0.00464425 to 0.00464425
Heightened Def Con from 0.00464634 to 0.00464634
Heightened Def Con from 0.00464727 to 0.00464728
Heightened Def Con from 0.00464938 to 0.00464938
Heightened Def Con from 0.0046503 to 0.0046503
Heightened Def Con from 0.0046524 to 0.0046524
Heightened Def Con from 0.00465333 to 0.00465333
Heightened Def Con from 0.00465543 to 0.00465543
Heightened Def Con from 0.00465637 to 0.00465637
Heightened Def Con from 0.00465845 to 0.00465845
Heightened Def Con from 0.0046594 to 0.00465941
Heightened Def Con from 0.00466148 to 0.00466148
Heightened Def Con from 0.00466244 to 0.00466244
Heightened Def Con from 0.0046645 to 0.0046645
Heightened Def Con from 0.00466549 to 0.00466549
Heightened Def Con from 0.00466751 to 0.00466751
Heightened Def Con from 0.00466853 to 0.00466853
Heightened Def Con from 0.00467052 to 0.00467052
Heightened Def Con from 0.00467157 to 0.00467157
Heightened Def Con from 0.00467353 to 0.00467353
Heightened Def Con from 0.00467462 to 0.00467462
Heightened Def Con from 0.00467654 to 0.00467654
Heightened Def Con from 0.00467767 to 0.00467767
Heightened Def Con from 0.00467955 to 0.00467955
Heightened Def Con from 0.00468072 to 0.00468072
Heightened Def Con from 0.00468255 to 0.00468255
Heightened Def Con from 0.00468377 to 0.00468377
Heightened Def Con from 0.00468556 to 0.00468556
Heightened Def Con from 0.00468683 to 0.00468683
Heightened Def Con from 0.00468856 to 0.00468856
Heightened Def Con from 0.00468988 to 0.00468988
Heightened Def Con from 0.00469156 to 0.00469156
Heightened Def Con from 0.00469294 to 0.00469294
Heightened Def Con from 0.00469456 to 0.00469456
Heightened Def Con from 0.00469599 to 0.00469599
Heightened Def Con from 0.00469756 to 0.00469756
Heightened Def Con from 0.00470056 to 0.00470056
Heightened Def Con from 0.0047021 to 0.00470211
Heightened Def Con from 0.00470357 to 0.00470357
Heightened Def Con from 0.00470516 to 0.00470516
Heightened Def Con from 0.00470657 to 0.00470657
Heightened Def Con from 0.00470822 to 0.00470822
Heightened Def Con from 0.00470957 to 0.00470957
Heightened Def Con from 0.00471127 to 0.00471127
Heightened Def Con from 0.00471257 to 0.00471257
Heightened Def Con from 0.00471433 to 0.00471433
Heightened Def Con from 0.00471557 to 0.00471557
Heightened Def Con from 0.00471738 to 0.00471738
Heightened Def Con from 0.00471858 to 0.00471858
Heightened Def Con from 0.00472043 to 0.00472043
Heightened Def Con from 0.00472158 to 0.00472158
Heightened Def Con from 0.00472348 to 0.00472348
Heightened Def Con from 0.00472459 to 0.00472459
Heightened Def Con from 0.00472653 to 0.00472653
Heightened Def Con from 0.0047276 to 0.0047276
Heightened Def Con from 0.00472957 to 0.00472957
Heightened Def Con from 0.00473061 to 0.00473061
Heightened Def Con from 0.00473262 to 0.00473262
Heightened Def Con from 0.00473362 to 0.00473362
Heightened Def Con from 0.00473566 to 0.00473566
Heightened Def Con from 0.00473663 to 0.00473663
Heightened Def Con from 0.00473869 to 0.00473869
Heightened Def Con from 0.00473965 to 0.00473965
Heightened Def Con from 0.00474173 to 0.00474173
Heightened Def Con from 0.00474476 to 0.00474476
Heightened Def Con from 0.00474569 to 0.00474569
Heightened Def Con from 0.00474779 to 0.00474779
Heightened Def Con from 0.00474872 to 0.00474872
Heightened Def Con from 0.00475082 to 0.00475082
Heightened Def Con from 0.00475175 to 0.00475175
Heightened Def Con from 0.00475385 to 0.00475385
Heightened Def Con from 0.00475478 to 0.00475478
Heightened Def Con from 0.00475687 to 0.00475687
Heightened Def Con from 0.00475781 to 0.00475781
Heightened Def Con from 0.00475989 to 0.00475989
Heightened Def Con from 0.00476084 to 0.00476085
Heightened Def Con from 0.00476291 to 0.00476291
Heightened Def Con from 0.00476388 to 0.00476388
Heightened Def Con from 0.00476592 to 0.00476592
Heightened Def Con from 0.00476692 to 0.00476692
Heightened Def Con from 0.00476893 to 0.00476894
Heightened Def Con from 0.00476996 to 0.00476997
Heightened Def Con from 0.00477195 to 0.00477195
Heightened Def Con from 0.00477301 to 0.00477301
Heightened Def Con from 0.00477495 to 0.00477495
Heightened Def Con from 0.00477606 to 0.00477606
Heightened Def Con from 0.00477796 to 0.00477797
Heightened Def Con from 0.0047791 to 0.00477911
Heightened Def Con from 0.00478097 to 0.00478097
Heightened Def Con from 0.00478216 to 0.00478216
Heightened Def Con from 0.00478397 to 0.00478397
Heightened Def Con from 0.00478521 to 0.00478521
Heightened Def Con from 0.00478697 to 0.00478698
Heightened Def Con from 0.00478826 to 0.00478826
Heightened Def Con from 0.00478998 to 0.00478998
Heightened Def Con from 0.00479132 to 0.00479132
Heightened Def Con from 0.00479298 to 0.00479298
Heightened Def Con from 0.00479437 to 0.00479437
Heightened Def Con from 0.00479598 to 0.00479598
Heightened Def Con from 0.00479743 to 0.00479743
Heightened Def Con from 0.00479898 to 0.00479898
Heightened Def Con from 0.00480048 to 0.00480048
Heightened Def Con from 0.00480198 to 0.00480198
Heightened Def Con from 0.00480354 to 0.00480354
Heightened Def Con from 0.0048066 to 0.0048066
Heightened Def Con from 0.00480798 to 0.00480798
Heightened Def Con from 0.00480965 to 0.00480965
Heightened Def Con from 0.00481098 to 0.00481098
Heightened Def Con from 0.00481271 to 0.00481271
Heightened Def Con from 0.00481398 to 0.00481398
Heightened Def Con from 0.00481576 to 0.00481577
Heightened Def Con from 0.00481698 to 0.00481699
Heightened Def Con from 0.00481881 to 0.00481881
Heightened Def Con from 0.00481999 to 0.00481999
Heightened Def Con from 0.00482186 to 0.00482186
Heightened Def Con from 0.004823 to 0.004823
Heightened Def Con from 0.00482491 to 0.00482491
Heightened Def Con from 0.00482601 to 0.00482601
Heightened Def Con from 0.00482796 to 0.00482796
Heightened Def Con from 0.00482902 to 0.00482902
Heightened Def Con from 0.00483101 to 0.00483101
Heightened Def Con from 0.00483203 to 0.00483204
Heightened Def Con from 0.00483405 to 0.00483405
Heightened Def Con from 0.00483505 to 0.00483505
Heightened Def Con from 0.00483709 to 0.00483709
Heightened Def Con from 0.00483806 to 0.00483806
Heightened Def Con from 0.00484013 to 0.00484013
Heightened Def Con from 0.00484109 to 0.00484109
Heightened Def Con from 0.00484317 to 0.00484317
Heightened Def Con from 0.00484411 to 0.00484411
Heightened Def Con from 0.0048462 to 0.0048462
Heightened Def Con from 0.00484713 to 0.00484713
Heightened Def Con from 0.00484924 to 0.00484924
Heightened Def Con from 0.00485016 to 0.00485016
Heightened Def Con from 0.00485226 to 0.00485226
Heightened Def Con from 0.00485319 to 0.00485319
Heightened Def Con from 0.00485529 to 0.00485529
Heightened Def Con from 0.00485623 to 0.00485623
Heightened Def Con from 0.00485831 to 0.00485831
Heightened Def Con from 0.00485926 to 0.00485926
Heightened Def Con from 0.00486133 to 0.00486133
Heightened Def Con from 0.0048623 to 0.0048623
Heightened Def Con from 0.00486435 to 0.00486435
Heightened Def Con from 0.00486534 to 0.00486534
Heightened Def Con from 0.00486737 to 0.00486737
Heightened Def Con from 0.00486838 to 0.00486838
Heightened Def Con from 0.00487038 to 0.00487038
Heightened Def Con from 0.00487143 to 0.00487143
Heightened Def Con from 0.00487339 to 0.00487339
Heightened Def Con from 0.00487448 to 0.00487448
Heightened Def Con from 0.0048764 to 0.0048764
Heightened Def Con from 0.00487753 to 0.00487753
Heightened Def Con from 0.00487941 to 0.00487941
Heightened Def Con from 0.00488058 to 0.00488058
Heightened Def Con from 0.00488241 to 0.00488241
Heightened Def Con from 0.00488363 to 0.00488363
Heightened Def Con from 0.00488542 to 0.00488542
Heightened Def Con from 0.00488668 to 0.00488669
Heightened Def Con from 0.00488842 to 0.00488842
Heightened Def Con from 0.00488974 to 0.00488974
Heightened Def Con from 0.00489142 to 0.00489142
Heightened Def Con from 0.00489279 to 0.00489279
Heightened Def Con from 0.00489442 to 0.00489442
Heightened Def Con from 0.00489585 to 0.00489585
Heightened Def Con from 0.00489742 to 0.00489742
Heightened Def Con from 0.0048989 to 0.00489891
Heightened Def Con from 0.00490042 to 0.00490042
Heightened Def Con from 0.00490196 to 0.00490196
Heightened Def Con from 0.00490342 to 0.00490342
Heightened Def Con from 0.00490502 to 0.00490502
Heightened Def Con from 0.00490643 to 0.00490643
Heightened Def Con from 0.00490807 to 0.00490807
Heightened Def Con from 0.00490942 to 0.00490943
Heightened Def Con from 0.00491112 to 0.00491113
Heightened Def Con from 0.00491242 to 0.00491242
Heightened Def Con from 0.00491418 to 0.00491418
Heightened Def Con from 0.00491543 to 0.00491543
Heightened Def Con from 0.00491723 to 0.00491723
Heightened Def Con from 0.00491843 to 0.00491843
Heightened Def Con from 0.00492028 to 0.00492028
Heightened Def Con from 0.00492144 to 0.00492144
Heightened Def Con from 0.00492333 to 0.00492334
Heightened Def Con from 0.00492444 to 0.00492444
Heightened Def Con from 0.00492638 to 0.00492638
Heightened Def Con from 0.00492745 to 0.00492745
Heightened Def Con from 0.00492943 to 0.00492943
Heightened Def Con from 0.00493046 to 0.00493046
Heightened Def Con from 0.00493247 to 0.00493247
Heightened Def Con from 0.00493348 to 0.00493348
Heightened Def Con from 0.00493551 to 0.00493551
Heightened Def Con from 0.00493649 to 0.00493649
Heightened Def Con from 0.00493855 to 0.00493855
Heightened Def Con from 0.00493951 to 0.00493951
Heightened Def Con from 0.00494159 to 0.00494159
Heightened Def Con from 0.00494253 to 0.00494253
Heightened Def Con from 0.00494462 to 0.00494462
Heightened Def Con from 0.00494555 to 0.00494555
Heightened Def Con from 0.00494765 to 0.00494765
Heightened Def Con from 0.00494858 to 0.00494858
Heightened Def Con from 0.00495068 to 0.00495068
Heightened Def Con from 0.0049516 to 0.0049516
Heightened Def Con from 0.00495371 to 0.00495371
Heightened Def Con from 0.00495463 to 0.00495463
Heightened Def Con from 0.00495673 to 0.00495673
Heightened Def Con from 0.00495767 to 0.00495767
Heightened Def Con from 0.00495975 to 0.00495975
Heightened Def Con from 0.0049607 to 0.0049607
Heightened Def Con from 0.00496277 to 0.00496277
Heightened Def Con from 0.00496374 to 0.00496374
Heightened Def Con from 0.00496578 to 0.00496578
Heightened Def Con from 0.00496678 to 0.00496678
Heightened Def Con from 0.0049688 to 0.0049688
Heightened Def Con from 0.00496982 to 0.00496982
Heightened Def Con from 0.00497181 to 0.00497181
Heightened Def Con from 0.00497287 to 0.00497287
Heightened Def Con from 0.00497482 to 0.00497482
Heightened Def Con from 0.00497592 to 0.00497592
Heightened Def Con from 0.00497783 to 0.00497783
Heightened Def Con from 0.00497897 to 0.00497897
Heightened Def Con from 0.00498083 to 0.00498083
Heightened Def Con from 0.00498202 to 0.00498202
Heightened Def Con from 0.00498384 to 0.00498384
Heightened Def Con from 0.00498507 to 0.00498507
Heightened Def Con from 0.00498684 to 0.00498684
Heightened Def Con from 0.00498813 to 0.00498813
Heightened Def Con from 0.00498984 to 0.00498984
Heightened Def Con from 0.00499118 to 0.00499118
Heightened Def Con from 0.00499284 to 0.00499284
Heightened Def Con from 0.00499423 to 0.00499424
Heightened Def Con from 0.00499584 to 0.00499584
Heightened Def Con from 0.00499729 to 0.00499729
Heightened Def Con from 0.00499884 to 0.00499884

Date: Sat Oct 05 14:20:08 2019
Total elapsed time: 140.978 seconds.

tnom = 27
temp = 27
method = modified trap
totiter = 5520869
traniter = 5438885
tranpoints = 1369936
accept = 968610
rejected = 404964
matrix size = 101
fillins = 138
solver = Normal
Thread vector: 25.7/14.9[3] 7.7/4.3[3] 2.6/2.2[3] 0.4/1.3[1]  2592/500
Matrix Compiler1: 13.41 KB object code size  2.6/1.4/[0.7]
Matrix Compiler2: 11.49 KB object code size  1.5/2.0/[0.6]

