Stray ".ends" card: .ends
Stray ".ends" card: .ends
Circuit: * C:\Users\gusta\Documents\GitHub\EEL7303\Laboratorios\Projeto - Amplificador Classe D em Ponte H\Simulação\V1.1.0\AmplificadorClasseD-V112.asc

Warning: Pd = 0 is less than W.
Warning: Ps = 0 is less than W.
Warning: Pd = 0 is less than W.
Warning: Ps = 0 is less than W.
Direct Newton iteration failed to find .op point.  (Use ".option noopiter" to skip.)
Starting Gmin stepping
Gmin = 10
Gmin = 1.07374
vernier = 0.5
vernier = 0.25
vernier = 0.125
vernier = 0.0625
Gmin = 1.08884
vernier = 0.03125
vernier = 0.015625
Gmin = 1.03122
vernier = 0.0078125
vernier = 0.0104167
vernier = 0.00520833
Gmin = 1.01988
vernier = 0.00260417
vernier = 0.00347222
Gmin = 1.01305
vernier = 0.00173611
vernier = 0.00231481
vernier = 0.00115741
Gmin = 1.01085
vernier = 0.00154321
vernier = 0.000771604
Gmin = 1.00871
vernier = 0.00102881
vernier = 0.000514403
Gmin = 1.00715
vernier = 0.00068587
vernier = 0.000514403
Gmin = 1.0059
vernier = 0.00068587
vernier = 0.000514402
Gmin = 0
Gmin stepping failed

Starting source stepping with srcstepmethod=0
Source Step = 3.0303%
Source Step = 23.4848%
Source Step = 23.9583%
vernier = 0.000976563
Source Step = 23.9761%
Source Step = 24.0057%
Source Step = 24.0353%
Source Step = 24.0649%
Source Step = 24.0945%
vernier = 0.00146484
Source Step = 24.1359%
Source Step = 24.1803%
Source Step = 24.2247%
Source Step = 24.2691%
Source Step = 24.3134%
vernier = 0.00219727
Source Step = 24.3734%
Source Step = 24.44%
Source Step = 24.5065%
Source Step = 24.5731%
Source Step = 24.6397%
vernier = 0.0032959
Source Step = 24.7263%
Source Step = 24.8261%
Source Step = 24.926%
Source Step = 25.0259%
Source Step = 25.1258%
vernier = 0.00494385
Source Step = 25.2506%
Source Step = 25.4004%
Source Step = 25.5502%
Source Step = 25.7001%
Source Step = 25.8499%
vernier = 0.00741577
Source Step = 26.0296%
Source Step = 26.2544%
Source Step = 26.4791%
Source Step = 26.7038%
Source Step = 26.9285%
vernier = 0.0111237
Source Step = 27.187%
Source Step = 27.524%
Source Step = 27.8611%
Source Step = 28.1982%
Source Step = 28.5353%
vernier = 0.0166855
Source Step = 28.9061%
Source Step = 29.4117%
Source Step = 29.9173%
Source Step = 30.4229%
Source Step = 30.9285%
vernier = 0.0250282
Source Step = 31.4594%
Source Step = 32.2179%
Source Step = 32.9763%
Source Step = 33.7347%
Source Step = 34.4932%
Source Step = 35.2516%
vernier = 0.0375423
Source Step = 36.3893%
Source Step = 37.5269%
Source Step = 38.6645%
Source Step = 39.8022%
Source Step = 40.9398%
vernier = 0.0563135
Source Step = 42.5894%
Source Step = 44.2959%
Source Step = 46.0024%
Source Step = 47.7088%
Source Step = 49.4153%
vernier = 0.0844703
Source Step = 51.8044%
Source Step = 54.3641%
Source Step = 56.9238%
Source Step = 59.4835%
Source Step = 62.0432%
vernier = 0.126705
Source Step = 65.4988%
Source Step = 69.3383%
Source Step = 73.1779%
Source Step = 77.0175%
Source Step = 80.857%
vernier = 0.190058
Source Step = 85.8484%
Source Step = 91.6078%
Source Step = 92.2377%
Source Step = 92.3277%
Source Step = 92.4177%
Source Step = 92.5077%
Source Step = 92.5977%
Source Step = 92.6877%
Source Step = 92.7776%
vernier = 0.00445449
Source Step = 92.8856%
Source Step = 93.0206%
Source Step = 93.1556%
Source Step = 93.2906%
Source Step = 93.4256%
vernier = 0.00668173
Source Step = 93.5808%
Source Step = 93.7833%
Source Step = 93.9858%
Source Step = 94.1882%
Source Step = 94.3907%
vernier = 0.0100226
Source Step = 94.6134%
Source Step = 94.9172%
Source Step = 95.2209%
Source Step = 95.5246%
Source Step = 95.8283%
vernier = 0.0150339
Source Step = 96.1472%
Source Step = 96.6028%
Source Step = 97.0583%
Source Step = 97.5139%
Source Step = 97.9695%
Source Step = 98.4251%
vernier = 0.0225508
Source Step = 99.1084%
Source Step = 99.7918%
Source stepping succeeded in finding the operating point.

Heightened Def Con from 4.59429e-005 to 4.59435e-005
Heightened Def Con from 4.7475e-005 to 4.74755e-005
Heightened Def Con from 5.09225e-005 to 5.0923e-005
Heightened Def Con from 5.24973e-005 to 5.25033e-005
Heightened Def Con from 5.5902e-005 to 5.59025e-005
Heightened Def Con from 5.75237e-005 to 5.75297e-005
Heightened Def Con from 6.08794e-005 to 6.08799e-005
Heightened Def Con from 6.25548e-005 to 6.25608e-005
Heightened Def Con from 6.58527e-005 to 6.58532e-005
Heightened Def Con from 6.75901e-005 to 6.75906e-005
Heightened Def Con from 7.08223e-005 to 7.08228e-005
Heightened Def Con from 7.26283e-005 to 7.26288e-005
Heightened Def Con from 7.57875e-005 to 7.5788e-005
Heightened Def Con from 7.76718e-005 to 7.76723e-005
Heightened Def Con from 8.07492e-005 to 8.07497e-005
Heightened Def Con from 8.27183e-005 to 8.27188e-005
Heightened Def Con from 8.57063e-005 to 8.57068e-005
Heightened Def Con from 8.77682e-005 to 8.77687e-005
Heightened Def Con from 9.06644e-005 to 9.06649e-005
Heightened Def Con from 9.28211e-005 to 9.28216e-005
Heightened Def Con from 9.5617e-005 to 9.56175e-005
Heightened Def Con from 9.78748e-005 to 9.78753e-005
Heightened Def Con from 0.000100572 to 0.000100572
Heightened Def Con from 0.000102928 to 0.000102928
Heightened Def Con from 0.000105527 to 0.000105527
Heightened Def Con from 0.000107979 to 0.00010798
Heightened Def Con from 0.000110484 to 0.000110484
Heightened Def Con from 0.000113029 to 0.000113035
Heightened Def Con from 0.000115442 to 0.000115443
Heightened Def Con from 0.000118076 to 0.000118082
Heightened Def Con from 0.000120403 to 0.000120404
Heightened Def Con from 0.000125369 to 0.000125369
Heightened Def Con from 0.000128154 to 0.000128155
Heightened Def Con from 0.000130342 to 0.000130342
Heightened Def Con from 0.000133185 to 0.000133186
Heightened Def Con from 0.000135315 to 0.000135315
Heightened Def Con from 0.000138208 to 0.000138208
Heightened Def Con from 0.000140299 to 0.0001403
Heightened Def Con from 0.000143224 to 0.000143225
Heightened Def Con from 0.00014529 to 0.000145291
Heightened Def Con from 0.000148231 to 0.000148232
Heightened Def Con from 0.00015029 to 0.000150291
Heightened Def Con from 0.000153234 to 0.000153234
Heightened Def Con from 0.000155297 to 0.000155297
Heightened Def Con from 0.000158229 to 0.000158229
Heightened Def Con from 0.000160309 to 0.00016031
Heightened Def Con from 0.000163216 to 0.000163216
Heightened Def Con from 0.00016533 to 0.00016533
Heightened Def Con from 0.000168203 to 0.000168203
Heightened Def Con from 0.000170353 to 0.000170354
Heightened Def Con from 0.00017317 to 0.000173171
Heightened Def Con from 0.000175387 to 0.000175387
Heightened Def Con from 0.000178139 to 0.00017814
Heightened Def Con from 0.000180424 to 0.000180425
Heightened Def Con from 0.000183108 to 0.000183109
Heightened Def Con from 0.000185469 to 0.00018547
Heightened Def Con from 0.000188066 to 0.000188066
Heightened Def Con from 0.000190519 to 0.00019052
Heightened Def Con from 0.000193019 to 0.00019302
Heightened Def Con from 0.000195566 to 0.000195566
Heightened Def Con from 0.000197975 to 0.000197975
Heightened Def Con from 0.000200613 to 0.000200613
Heightened Def Con from 0.000202934 to 0.000202934
Heightened Def Con from 0.000205661 to 0.000205662
Heightened Def Con from 0.00020789 to 0.00020789
Heightened Def Con from 0.000210711 to 0.000210712
Heightened Def Con from 0.000212847 to 0.000212848
Heightened Def Con from 0.000215757 to 0.000215757
Heightened Def Con from 0.000217809 to 0.00021781
Heightened Def Con from 0.000220797 to 0.000220797
Heightened Def Con from 0.000222774 to 0.000222775
Heightened Def Con from 0.000225832 to 0.000225833
Heightened Def Con from 0.000227743 to 0.000227744
Heightened Def Con from 0.000230867 to 0.000230867
Heightened Def Con from 0.000232718 to 0.000232719
Heightened Def Con from 0.000235895 to 0.000235896
Heightened Def Con from 0.000237701 to 0.000237701
Heightened Def Con from 0.000240906 to 0.000240906
Heightened Def Con from 0.000242684 to 0.000242684
Heightened Def Con from 0.00024592 to 0.000245921
Heightened Def Con from 0.000247679 to 0.00024768
Heightened Def Con from 0.000250927 to 0.000250928
Heightened Def Con from 0.000252682 to 0.000252683
Heightened Def Con from 0.000255925 to 0.000255926
Heightened Def Con from 0.000257691 to 0.000257692
Heightened Def Con from 0.000260913 to 0.000260913
Heightened Def Con from 0.000262709 to 0.000262709
Heightened Def Con from 0.000265898 to 0.000265899
Heightened Def Con from 0.000267733 to 0.000267733
Heightened Def Con from 0.000270874 to 0.000270875
Heightened Def Con from 0.000272764 to 0.000272764
Heightened Def Con from 0.000275844 to 0.000275845
Heightened Def Con from 0.0002778 to 0.000277801
Heightened Def Con from 0.000280811 to 0.000280812
Heightened Def Con from 0.000282841 to 0.000282842
Heightened Def Con from 0.000285772 to 0.000285772
Heightened Def Con from 0.000287885 to 0.000287885
Heightened Def Con from 0.000290733 to 0.000290733
Heightened Def Con from 0.000292933 to 0.000292933
Heightened Def Con from 0.000295692 to 0.000295692
Heightened Def Con from 0.000297983 to 0.000297983
Heightened Def Con from 0.000303033 to 0.000303033
Heightened Def Con from 0.000305605 to 0.000305606
Heightened Def Con from 0.000308082 to 0.000308082
Heightened Def Con from 0.000310565 to 0.000310565
Heightened Def Con from 0.00031313 to 0.00031313
Heightened Def Con from 0.000315528 to 0.000315529
Heightened Def Con from 0.000318175 to 0.000318176
Heightened Def Con from 0.000320489 to 0.00032049
Heightened Def Con from 0.00032322 to 0.000323221
Heightened Def Con from 0.000328252 to 0.000328253
Heightened Def Con from 0.00033043 to 0.00033043
Heightened Def Con from 0.000333282 to 0.000333282
Heightened Def Con from 0.000335409 to 0.00033541
Heightened Def Con from 0.000338305 to 0.000338306
Heightened Def Con from 0.000340396 to 0.000340397
Heightened Def Con from 0.000343321 to 0.000343322
Heightened Def Con from 0.000345385 to 0.000345386
Heightened Def Con from 0.00034833 to 0.00034833
Heightened Def Con from 0.000350384 to 0.000350385
Heightened Def Con from 0.000353332 to 0.000353332
Heightened Def Con from 0.000355393 to 0.000355393
Heightened Def Con from 0.000358326 to 0.000358327
Heightened Def Con from 0.000360408 to 0.000360408
Heightened Def Con from 0.000363316 to 0.000363322
Heightened Def Con from 0.000365429 to 0.00036543
Heightened Def Con from 0.000368299 to 0.0003683
Heightened Def Con from 0.000370465 to 0.000370465
Heightened Def Con from 0.000373273 to 0.000373274
Heightened Def Con from 0.000375495 to 0.000375496
Heightened Def Con from 0.000378239 to 0.000378239
Heightened Def Con from 0.000380533 to 0.000380533
Heightened Def Con from 0.000383204 to 0.000383204
Heightened Def Con from 0.000385577 to 0.000385578
Heightened Def Con from 0.000388165 to 0.000388166
Heightened Def Con from 0.000390625 to 0.000390625
Heightened Def Con from 0.000393125 to 0.000393126
Heightened Def Con from 0.000395675 to 0.000395676
Heightened Def Con from 0.00039808 to 0.000398081
Heightened Def Con from 0.000400722 to 0.000400722
Heightened Def Con from 0.000403038 to 0.000403038
Heightened Def Con from 0.000405773 to 0.000405773
Heightened Def Con from 0.000407996 to 0.000407996
Heightened Def Con from 0.000410822 to 0.000410823
Heightened Def Con from 0.000412953 to 0.000412959
Heightened Def Con from 0.000415869 to 0.000415869
Heightened Def Con from 0.000417915 to 0.000417916
Heightened Def Con from 0.00042091 to 0.00042091
Heightened Def Con from 0.00042288 to 0.00042288
Heightened Def Con from 0.000425948 to 0.000425948
Heightened Def Con from 0.00042785 to 0.00042785
Heightened Def Con from 0.000430982 to 0.000430983
Heightened Def Con from 0.000432824 to 0.000432825
Heightened Def Con from 0.000436009 to 0.00043601
Heightened Def Con from 0.000437807 to 0.000437808
Heightened Def Con from 0.000441029 to 0.00044103
Heightened Def Con from 0.000442796 to 0.000442802
Heightened Def Con from 0.000446042 to 0.000446042
Heightened Def Con from 0.000447792 to 0.000447792
Heightened Def Con from 0.000451047 to 0.000451048
Heightened Def Con from 0.000452794 to 0.000452795
Heightened Def Con from 0.000456046 to 0.000456046
Heightened Def Con from 0.000457806 to 0.000457807
Heightened Def Con from 0.000461037 to 0.000461038
Heightened Def Con from 0.000462824 to 0.000462825
Heightened Def Con from 0.000466017 to 0.000466017
Heightened Def Con from 0.000467848 to 0.000467849
Heightened Def Con from 0.000470995 to 0.000470996
Heightened Def Con from 0.00047288 to 0.000472886
Heightened Def Con from 0.000475968 to 0.000475969
Heightened Def Con from 0.000477916 to 0.000477917
Heightened Def Con from 0.000480935 to 0.000480936
Heightened Def Con from 0.000482959 to 0.000482959
Heightened Def Con from 0.000485898 to 0.000485898
Heightened Def Con from 0.000488003 to 0.000488004
Heightened Def Con from 0.000490854 to 0.000490854
Heightened Def Con from 0.000493054 to 0.000493054
Heightened Def Con from 0.000495812 to 0.000495812
Heightened Def Con from 0.000498105 to 0.000498111
Heightened Def Con from 0.000500767 to 0.000500767
Heightened Def Con from 0.000503153 to 0.000503159
Heightened Def Con from 0.000505721 to 0.000505721
Heightened Def Con from 0.000508202 to 0.000508202
Heightened Def Con from 0.000510679 to 0.000510679
Heightened Def Con from 0.000513249 to 0.000513249
Heightened Def Con from 0.000515637 to 0.000515638
Heightened Def Con from 0.000518293 to 0.000518299
Heightened Def Con from 0.000520601 to 0.000520602
Heightened Def Con from 0.000523332 to 0.000523333
Heightened Def Con from 0.00052557 to 0.000525571
Heightened Def Con from 0.000528368 to 0.000528369
Heightened Def Con from 0.000530543 to 0.000530544
Heightened Def Con from 0.000533396 to 0.000533396
Heightened Def Con from 0.000535529 to 0.000535529
Heightened Def Con from 0.00053842 to 0.00053842
Heightened Def Con from 0.00054051 to 0.00054051
Heightened Def Con from 0.000543436 to 0.000543437
Heightened Def Con from 0.000548446 to 0.000548446
Heightened Def Con from 0.000550503 to 0.000550503
Heightened Def Con from 0.000553447 to 0.000553448
Heightened Def Con from 0.000555509 to 0.000555509
Heightened Def Con from 0.000558442 to 0.000558443
Heightened Def Con from 0.000560522 to 0.000560523
Heightened Def Con from 0.000563428 to 0.000563428
Heightened Def Con from 0.000565543 to 0.000565544
Heightened Def Con from 0.000568406 to 0.000568407
Heightened Def Con from 0.000570569 to 0.000570569
Heightened Def Con from 0.000573381 to 0.000573382
Heightened Def Con from 0.000575607 to 0.000575608
Heightened Def Con from 0.00057835 to 0.00057835
Heightened Def Con from 0.000580644 to 0.000580645
Heightened Def Con from 0.000583314 to 0.000583315
Heightened Def Con from 0.000585688 to 0.000585688
Heightened Def Con from 0.000588272 to 0.000588272
Heightened Def Con from 0.00059073 to 0.000590731
Heightened Def Con from 0.000593234 to 0.000593234
Heightened Def Con from 0.00059578 to 0.000595781
Heightened Def Con from 0.000598188 to 0.000598188
Heightened Def Con from 0.000600831 to 0.000600831
Heightened Def Con from 0.000603145 to 0.000603146
Heightened Def Con from 0.000605882 to 0.000605882
Heightened Def Con from 0.000608102 to 0.000608103
Heightened Def Con from 0.000610927 to 0.000610927
Heightened Def Con from 0.000613059 to 0.000613059
Heightened Def Con from 0.000615974 to 0.000615974
Heightened Def Con from 0.00061802 to 0.00061802
Heightened Def Con from 0.000621017 to 0.000621017
Heightened Def Con from 0.000622985 to 0.000622986
Heightened Def Con from 0.000626055 to 0.000626056
Heightened Def Con from 0.000627956 to 0.000627956
Heightened Def Con from 0.000631089 to 0.00063109
Heightened Def Con from 0.000632932 to 0.000632933
Heightened Def Con from 0.000636114 to 0.000636115
Heightened Def Con from 0.000637915 to 0.000637915
Heightened Def Con from 0.000641134 to 0.000641135
Heightened Def Con from 0.000642904 to 0.000642904
Heightened Def Con from 0.000646143 to 0.000646144
Heightened Def Con from 0.0006479 to 0.0006479
Heightened Def Con from 0.000651145 to 0.000651145
Heightened Def Con from 0.000652902 to 0.000652903
Heightened Def Con from 0.000656141 to 0.000656141
Heightened Def Con from 0.000657912 to 0.000657912
Heightened Def Con from 0.000661132 to 0.000661133
Heightened Def Con from 0.000662929 to 0.00066293
Heightened Def Con from 0.000666118 to 0.000666118
Heightened Def Con from 0.000667953 to 0.000667954
Heightened Def Con from 0.000671093 to 0.000671093
Heightened Def Con from 0.000672982 to 0.000672982
Heightened Def Con from 0.000676061 to 0.000676061
Heightened Def Con from 0.000678018 to 0.000678019
Heightened Def Con from 0.000681027 to 0.000681028
Heightened Def Con from 0.000683059 to 0.000683059
Heightened Def Con from 0.000685989 to 0.00068599
Heightened Def Con from 0.000688104 to 0.00068811
Heightened Def Con from 0.00069095 to 0.000690951
Heightened Def Con from 0.000693154 to 0.000693154
Heightened Def Con from 0.000695906 to 0.000695907
Heightened Def Con from 0.000698201 to 0.000698202
Heightened Def Con from 0.000700861 to 0.000700861
Heightened Def Con from 0.00070325 to 0.00070325
Heightened Def Con from 0.000705814 to 0.000705815
Heightened Def Con from 0.000708298 to 0.000708299
Heightened Def Con from 0.000713346 to 0.000713346
Heightened Def Con from 0.000715739 to 0.000715739
Heightened Def Con from 0.0007207 to 0.000720701
Heightened Def Con from 0.00072343 to 0.00072343
Heightened Def Con from 0.000725669 to 0.000725669
Heightened Def Con from 0.000728466 to 0.000728466
Heightened Def Con from 0.000730642 to 0.000730643
Heightened Def Con from 0.000735621 to 0.000735622
Heightened Def Con from 0.000738517 to 0.000738523
Heightened Def Con from 0.000740606 to 0.000740606
Heightened Def Con from 0.000743533 to 0.000743539
Heightened Def Con from 0.000745599 to 0.0007456
Heightened Def Con from 0.000748543 to 0.000748544
Heightened Def Con from 0.0007506 to 0.0007506
Heightened Def Con from 0.000753549 to 0.000753549
Heightened Def Con from 0.000755607 to 0.000755607
Heightened Def Con from 0.000758536 to 0.000758537
Heightened Def Con from 0.000760619 to 0.00076062
Heightened Def Con from 0.000763526 to 0.000763527
Heightened Def Con from 0.000765641 to 0.000765642
Heightened Def Con from 0.000768509 to 0.00076851
Heightened Def Con from 0.000770672 to 0.000770672
Heightened Def Con from 0.00077348 to 0.000773481
Heightened Def Con from 0.000775704 to 0.000775704
Heightened Def Con from 0.000778455 to 0.000778455
Heightened Def Con from 0.000780749 to 0.000780749
Heightened Def Con from 0.000783413 to 0.000783414
Heightened Def Con from 0.000785789 to 0.000785789
Heightened Def Con from 0.000788374 to 0.000788375
Heightened Def Con from 0.000790837 to 0.000790838
Heightened Def Con from 0.000793337 to 0.000793338
Heightened Def Con from 0.000795884 to 0.000795885
Heightened Def Con from 0.000798288 to 0.000798288
Heightened Def Con from 0.000803246 to 0.000803247
Heightened Def Con from 0.000805983 to 0.000805984
Heightened Def Con from 0.000808203 to 0.000808203
Heightened Def Con from 0.000811033 to 0.000811033
Heightened Def Con from 0.000813162 to 0.000813163
Heightened Def Con from 0.00081608 to 0.000816081
Heightened Def Con from 0.000818124 to 0.000818125
Heightened Def Con from 0.000821119 to 0.000821119
Heightened Def Con from 0.000823089 to 0.000823095
Heightened Def Con from 0.000826158 to 0.000826159
Heightened Def Con from 0.00082806 to 0.000828066
Heightened Def Con from 0.00083119 to 0.00083119
Heightened Def Con from 0.000833036 to 0.000833042
Heightened Def Con from 0.000836218 to 0.000836218
Heightened Def Con from 0.000838018 to 0.000838018
Heightened Def Con from 0.000841236 to 0.000841237
Heightened Def Con from 0.000843005 to 0.000843005
Heightened Def Con from 0.000846245 to 0.000846245
Heightened Def Con from 0.000848001 to 0.000848001
Heightened Def Con from 0.000851251 to 0.000851252
Heightened Def Con from 0.000853004 to 0.000853005
Heightened Def Con from 0.000856251 to 0.000856251
Heightened Def Con from 0.000858015 to 0.000858016
Heightened Def Con from 0.000861238 to 0.000861239
Heightened Def Con from 0.000863033 to 0.000863034
Heightened Def Con from 0.000866222 to 0.000866223
Heightened Def Con from 0.000868058 to 0.000868058
Heightened Def Con from 0.000871201 to 0.000871201
Heightened Def Con from 0.000873089 to 0.00087309
Heightened Def Con from 0.000876168 to 0.000876168
Heightened Def Con from 0.000878126 to 0.000878127
Heightened Def Con from 0.000881132 to 0.000881133
Heightened Def Con from 0.000883169 to 0.000883169
Heightened Def Con from 0.000886095 to 0.000886096
Heightened Def Con from 0.000888213 to 0.000888214
Heightened Def Con from 0.000891052 to 0.000891053
Heightened Def Con from 0.000893266 to 0.000893267
Heightened Def Con from 0.000896008 to 0.000896008
Heightened Def Con from 0.000900963 to 0.000900964
Heightened Def Con from 0.000903357 to 0.000903357
Heightened Def Con from 0.00090592 to 0.000905921
Heightened Def Con from 0.000908409 to 0.000908409
Heightened Def Con from 0.000910879 to 0.000910879
Heightened Def Con from 0.000913453 to 0.000913459
Heightened Def Con from 0.000915839 to 0.00091584
Heightened Def Con from 0.000918498 to 0.000918499
Heightened Def Con from 0.000920803 to 0.000920804
Heightened Def Con from 0.000923538 to 0.000923538
Heightened Def Con from 0.00092577 to 0.00092577
Heightened Def Con from 0.000928573 to 0.000928573
Heightened Def Con from 0.000930747 to 0.000930748
Heightened Def Con from 0.000933603 to 0.000933603
Heightened Def Con from 0.000935726 to 0.000935726
Heightened Def Con from 0.000940716 to 0.000940716
Heightened Def Con from 0.000943641 to 0.000943642
Heightened Def Con from 0.000945705 to 0.000945706
Heightened Def Con from 0.000948649 to 0.000948649
Heightened Def Con from 0.000950703 to 0.000950703
Heightened Def Con from 0.00095365 to 0.00095365
Heightened Def Con from 0.000955711 to 0.000955712
Heightened Def Con from 0.000958649 to 0.00095865
Heightened Def Con from 0.000960726 to 0.000960726
Heightened Def Con from 0.000963632 to 0.000963632
Heightened Def Con from 0.000965746 to 0.000965747
Heightened Def Con from 0.000968613 to 0.000968613
Heightened Def Con from 0.000970774 to 0.000970775
Heightened Def Con from 0.000973584 to 0.000973584
Heightened Def Con from 0.000975809 to 0.00097581
Heightened Def Con from 0.000978552 to 0.000978552
Heightened Def Con from 0.000980847 to 0.000980847
Heightened Def Con from 0.000983517 to 0.000983517
Heightened Def Con from 0.00098589 to 0.000985891
Heightened Def Con from 0.000988478 to 0.000988479
Heightened Def Con from 0.000990942 to 0.000990943
Heightened Def Con from 0.000993438 to 0.000993439
Heightened Def Con from 0.000995986 to 0.000995987
Heightened Def Con from 0.000998396 to 0.000998397
Heightened Def Con from 0.00100104 to 0.00100104
Heightened Def Con from 0.00100335 to 0.00100335
Heightened Def Con from 0.00100608 to 0.00100608
Heightened Def Con from 0.0010083 to 0.0010083
Heightened Def Con from 0.00101113 to 0.00101114
Heightened Def Con from 0.00101326 to 0.00101326
Heightened Def Con from 0.00101618 to 0.00101618
Heightened Def Con from 0.00101822 to 0.00101822
Heightened Def Con from 0.00102122 to 0.00102122
Heightened Def Con from 0.00102319 to 0.00102319
Heightened Def Con from 0.00102625 to 0.00102626
Heightened Def Con from 0.00102816 to 0.00102816
Heightened Def Con from 0.00103129 to 0.00103129
Heightened Def Con from 0.00103313 to 0.00103313
Heightened Def Con from 0.00103632 to 0.00103632
Heightened Def Con from 0.00103812 to 0.00103812
Heightened Def Con from 0.00104134 to 0.00104134
Heightened Def Con from 0.0010431 to 0.00104311
Heightened Def Con from 0.00104635 to 0.00104635
Heightened Def Con from 0.0010481 to 0.0010481
Heightened Def Con from 0.00105136 to 0.00105136
Heightened Def Con from 0.0010531 to 0.0010531
Heightened Def Con from 0.00105635 to 0.00105635
Heightened Def Con from 0.00105812 to 0.00105812
Heightened Def Con from 0.00106134 to 0.00106135
Heightened Def Con from 0.00106313 to 0.00106313
Heightened Def Con from 0.00106633 to 0.00106633
Heightened Def Con from 0.00106816 to 0.00106816
Heightened Def Con from 0.00107131 to 0.00107131
Heightened Def Con from 0.00107319 to 0.00107319
Heightened Def Con from 0.00107628 to 0.00107628
Heightened Def Con from 0.00107823 to 0.00107823
Heightened Def Con from 0.00108125 to 0.00108125
Heightened Def Con from 0.00108327 to 0.00108327
Heightened Def Con from 0.00108621 to 0.00108621
Heightened Def Con from 0.00108832 to 0.00108832
Heightened Def Con from 0.00109116 to 0.00109116
Heightened Def Con from 0.00109612 to 0.00109612
Heightened Def Con from 0.00109841 to 0.00109842
Heightened Def Con from 0.00110107 to 0.00110108
Heightened Def Con from 0.00110347 to 0.00110347
Heightened Def Con from 0.00110603 to 0.00110603
Heightened Def Con from 0.00110851 to 0.00110852
Heightened Def Con from 0.00111099 to 0.00111099
Heightened Def Con from 0.00111356 to 0.00111356
Heightened Def Con from 0.00111596 to 0.00111596
Heightened Def Con from 0.00111861 to 0.00111861
Heightened Def Con from 0.00112092 to 0.00112092
Heightened Def Con from 0.00112365 to 0.00112365
Heightened Def Con from 0.00112588 to 0.00112588
Heightened Def Con from 0.00112868 to 0.00112868
Heightened Def Con from 0.00113086 to 0.00113086
Heightened Def Con from 0.00113584 to 0.00113584
Heightened Def Con from 0.00113873 to 0.00113874
Heightened Def Con from 0.00114082 to 0.00114082
Heightened Def Con from 0.00114375 to 0.00114375
Heightened Def Con from 0.00114581 to 0.00114581
Heightened Def Con from 0.00114876 to 0.00114876
Heightened Def Con from 0.00115376 to 0.00115376
Heightened Def Con from 0.00115582 to 0.00115582
Heightened Def Con from 0.00115875 to 0.00115875
Heightened Def Con from 0.00116083 to 0.00116083
Heightened Def Con from 0.00116373 to 0.00116373
Heightened Def Con from 0.00116586 to 0.00116586
Heightened Def Con from 0.00116871 to 0.00116871
Heightened Def Con from 0.00117088 to 0.00117088
Heightened Def Con from 0.00117369 to 0.00117369
Heightened Def Con from 0.00117591 to 0.00117592
Heightened Def Con from 0.00117866 to 0.00117866
Heightened Def Con from 0.00118095 to 0.00118096
Heightened Def Con from 0.00118362 to 0.00118363
Heightened Def Con from 0.001186 to 0.001186
Heightened Def Con from 0.00118859 to 0.00118859
Heightened Def Con from 0.00119104 to 0.00119104
Heightened Def Con from 0.00119354 to 0.00119354
Heightened Def Con from 0.00119849 to 0.00119849
Heightened Def Con from 0.00120114 to 0.00120114
Heightened Def Con from 0.00120345 to 0.00120345
Heightened Def Con from 0.00120619 to 0.00120619
Heightened Def Con from 0.0012084 to 0.0012084
Heightened Def Con from 0.00121123 to 0.00121123
Heightened Def Con from 0.00121336 to 0.00121336
Heightened Def Con from 0.00121628 to 0.00121628
Heightened Def Con from 0.00121832 to 0.00121832
Heightened Def Con from 0.00122132 to 0.00122132
Heightened Def Con from 0.00122329 to 0.00122329
Heightened Def Con from 0.00122636 to 0.00122636
Heightened Def Con from 0.00122826 to 0.00122826
Heightened Def Con from 0.00123139 to 0.00123139
Heightened Def Con from 0.00123323 to 0.00123323
Heightened Def Con from 0.00123642 to 0.00123642
Heightened Def Con from 0.00123822 to 0.00123822
Heightened Def Con from 0.00124143 to 0.00124143
Heightened Def Con from 0.0012432 to 0.0012432
Heightened Def Con from 0.00124645 to 0.00124645
Heightened Def Con from 0.0012482 to 0.0012482
Heightened Def Con from 0.0012532 to 0.0012532
Heightened Def Con from 0.00125645 to 0.00125645
Heightened Def Con from 0.00125821 to 0.00125822
Heightened Def Con from 0.00126144 to 0.00126144
Heightened Def Con from 0.00126323 to 0.00126323
Heightened Def Con from 0.00126642 to 0.00126642
Heightened Def Con from 0.00126826 to 0.00126826
Heightened Def Con from 0.0012714 to 0.0012714
Heightened Def Con from 0.00127329 to 0.00127329
Heightened Def Con from 0.00127637 to 0.00127637
Heightened Def Con from 0.00127833 to 0.00127833
Heightened Def Con from 0.00128133 to 0.00128133
Heightened Def Con from 0.00128337 to 0.00128337
Heightened Def Con from 0.00128629 to 0.00128629
Heightened Def Con from 0.00128841 to 0.00128841
Heightened Def Con from 0.00129125 to 0.00129125
Heightened Def Con from 0.00129346 to 0.00129346
Heightened Def Con from 0.00129621 to 0.00129621
Heightened Def Con from 0.00129851 to 0.00129851
Heightened Def Con from 0.00130116 to 0.00130116
Heightened Def Con from 0.00130356 to 0.00130356
Heightened Def Con from 0.00130613 to 0.00130613
Heightened Def Con from 0.00130861 to 0.00130861
Heightened Def Con from 0.00131108 to 0.00131108
Heightened Def Con from 0.00131366 to 0.00131366
Heightened Def Con from 0.00131604 to 0.00131604
Heightened Def Con from 0.0013187 to 0.0013187
Heightened Def Con from 0.001321 to 0.001321
Heightened Def Con from 0.00132374 to 0.00132374
Heightened Def Con from 0.00132597 to 0.00132597
Heightened Def Con from 0.00132878 to 0.00132878
Heightened Def Con from 0.00133095 to 0.00133095
Heightened Def Con from 0.0013338 to 0.0013338
Heightened Def Con from 0.00133593 to 0.00133593
Heightened Def Con from 0.00133883 to 0.00133883
Heightened Def Con from 0.00134092 to 0.00134092
Heightened Def Con from 0.00134384 to 0.00134384
Heightened Def Con from 0.0013459 to 0.0013459
Heightened Def Con from 0.00134885 to 0.00134885
Heightened Def Con from 0.0013509 to 0.00135091
Heightened Def Con from 0.00135385 to 0.00135385
Heightened Def Con from 0.00135591 to 0.00135591
Heightened Def Con from 0.00135884 to 0.00135884
Heightened Def Con from 0.00136093 to 0.00136093
Heightened Def Con from 0.00136383 to 0.00136384
Heightened Def Con from 0.00136595 to 0.00136595
Heightened Def Con from 0.00136881 to 0.00136881
Heightened Def Con from 0.00137098 to 0.00137098
Heightened Def Con from 0.00137378 to 0.00137378
Heightened Def Con from 0.00137601 to 0.00137602
Heightened Def Con from 0.00137875 to 0.00137875
Heightened Def Con from 0.00138105 to 0.00138105
Heightened Def Con from 0.00138371 to 0.00138371
Heightened Def Con from 0.0013861 to 0.0013861
Heightened Def Con from 0.00138868 to 0.00138868
Heightened Def Con from 0.00139114 to 0.00139114
Heightened Def Con from 0.00139363 to 0.00139364
Heightened Def Con from 0.00139619 to 0.00139619
Heightened Def Con from 0.00139859 to 0.00139859
Heightened Def Con from 0.00140124 to 0.00140124
Heightened Def Con from 0.00140355 to 0.00140355
Heightened Def Con from 0.00140629 to 0.00140629
Heightened Def Con from 0.0014085 to 0.0014085
Heightened Def Con from 0.00141134 to 0.00141134
Heightened Def Con from 0.00141346 to 0.00141346
Heightened Def Con from 0.00141638 to 0.00141638
Heightened Def Con from 0.00141842 to 0.00141842
Heightened Def Con from 0.00142142 to 0.00142142
Heightened Def Con from 0.00142339 to 0.00142339
Heightened Def Con from 0.00142646 to 0.00142646
Heightened Def Con from 0.00142836 to 0.00142836
Heightened Def Con from 0.00143149 to 0.00143149
Heightened Def Con from 0.00143333 to 0.00143333
Heightened Def Con from 0.00143651 to 0.00143651
Heightened Def Con from 0.00143831 to 0.00143832
Heightened Def Con from 0.00144153 to 0.00144153
Heightened Def Con from 0.0014433 to 0.0014433
Heightened Def Con from 0.00144655 to 0.00144655
Heightened Def Con from 0.0014483 to 0.0014483
Heightened Def Con from 0.00145155 to 0.00145155
Heightened Def Con from 0.0014533 to 0.0014533
Heightened Def Con from 0.00145655 to 0.00145655
Heightened Def Con from 0.00145832 to 0.00145832
Heightened Def Con from 0.00146154 to 0.00146154
Heightened Def Con from 0.00146333 to 0.00146333
Heightened Def Con from 0.00146652 to 0.00146652
Heightened Def Con from 0.00146836 to 0.00146836
Heightened Def Con from 0.0014715 to 0.0014715
Heightened Def Con from 0.00147339 to 0.00147339
Heightened Def Con from 0.00147647 to 0.00147647
Heightened Def Con from 0.00147843 to 0.00147843
Heightened Def Con from 0.00148143 to 0.00148143
Heightened Def Con from 0.00148347 to 0.00148347
Heightened Def Con from 0.00148639 to 0.00148639
Heightened Def Con from 0.00148851 to 0.00148852
Heightened Def Con from 0.00149136 to 0.00149136
Heightened Def Con from 0.00149356 to 0.00149356
Heightened Def Con from 0.00149631 to 0.00149631
Heightened Def Con from 0.00149861 to 0.00149861
Heightened Def Con from 0.00150366 to 0.00150366
Heightened Def Con from 0.00150622 to 0.00150622
Heightened Def Con from 0.00150871 to 0.00150871
Heightened Def Con from 0.00151118 to 0.00151118
Heightened Def Con from 0.00151376 to 0.00151376
Heightened Def Con from 0.00151615 to 0.00151615
Heightened Def Con from 0.0015188 to 0.0015188
Heightened Def Con from 0.0015211 to 0.00152111
Heightened Def Con from 0.00152384 to 0.00152384
Heightened Def Con from 0.00152607 to 0.00152607
Heightened Def Con from 0.00152888 to 0.00152888
Heightened Def Con from 0.00153105 to 0.00153105
Heightened Def Con from 0.00153391 to 0.00153391
Heightened Def Con from 0.00153603 to 0.00153603
Heightened Def Con from 0.00153893 to 0.00153893
Heightened Def Con from 0.00154101 to 0.00154101
Heightened Def Con from 0.00154394 to 0.00154394
Heightened Def Con from 0.00154601 to 0.00154601
Heightened Def Con from 0.00154895 to 0.00154895
Heightened Def Con from 0.00155101 to 0.00155101
Heightened Def Con from 0.00155395 to 0.00155395
Heightened Def Con from 0.00155602 to 0.00155602
Heightened Def Con from 0.00155895 to 0.00155895
Heightened Def Con from 0.00156103 to 0.00156103
Heightened Def Con from 0.00156393 to 0.00156393
Heightened Def Con from 0.00156606 to 0.00156606
Heightened Def Con from 0.00156891 to 0.00156891
Heightened Def Con from 0.00157108 to 0.00157108
Heightened Def Con from 0.00157389 to 0.00157389
Heightened Def Con from 0.00157611 to 0.00157611
Heightened Def Con from 0.00157885 to 0.00157885
Heightened Def Con from 0.00158116 to 0.00158116
Heightened Def Con from 0.00158382 to 0.00158382
Heightened Def Con from 0.00158619 to 0.00158619
Heightened Def Con from 0.00158878 to 0.00158878
Heightened Def Con from 0.00159124 to 0.00159124
Heightened Def Con from 0.00159373 to 0.00159373
Heightened Def Con from 0.00159629 to 0.00159629
Heightened Def Con from 0.00159869 to 0.00159869
Heightened Def Con from 0.00160134 to 0.00160134
Heightened Def Con from 0.00160365 to 0.00160365
Heightened Def Con from 0.00160639 to 0.00160639
Heightened Def Con from 0.00160861 to 0.00160861
Heightened Def Con from 0.00161144 to 0.00161144
Heightened Def Con from 0.00161356 to 0.00161356
Heightened Def Con from 0.00161649 to 0.00161649
Heightened Def Con from 0.00161853 to 0.00161853
Heightened Def Con from 0.00162153 to 0.00162153
Heightened Def Con from 0.00162349 to 0.00162349
Heightened Def Con from 0.00162657 to 0.00162657
Heightened Def Con from 0.00162846 to 0.00162846
Heightened Def Con from 0.0016316 to 0.0016316
Heightened Def Con from 0.00163344 to 0.00163344
Heightened Def Con from 0.00163662 to 0.00163663
Heightened Def Con from 0.00163842 to 0.00163842
Heightened Def Con from 0.00164164 to 0.00164165
Heightened Def Con from 0.00164341 to 0.00164341
Heightened Def Con from 0.00164666 to 0.00164666
Heightened Def Con from 0.00164841 to 0.00164841
Heightened Def Con from 0.00165166 to 0.00165166
Heightened Def Con from 0.00165341 to 0.00165341
Heightened Def Con from 0.00165666 to 0.00165666
Heightened Def Con from 0.00165842 to 0.00165842
Heightened Def Con from 0.00166165 to 0.00166165
Heightened Def Con from 0.00166344 to 0.00166345
Heightened Def Con from 0.00166663 to 0.00166663
Heightened Def Con from 0.00166847 to 0.00166847
Heightened Def Con from 0.00167161 to 0.00167161
Heightened Def Con from 0.0016735 to 0.0016735
Heightened Def Con from 0.00167658 to 0.00167658
Heightened Def Con from 0.00167854 to 0.00167854
Heightened Def Con from 0.00168154 to 0.00168154
Heightened Def Con from 0.00168358 to 0.00168358
Heightened Def Con from 0.00168651 to 0.00168651
Heightened Def Con from 0.00168863 to 0.00168863
Heightened Def Con from 0.00169146 to 0.00169146
Heightened Def Con from 0.00169367 to 0.00169367
Heightened Def Con from 0.00169642 to 0.00169642
Heightened Def Con from 0.00169872 to 0.00169872
Heightened Def Con from 0.00170137 to 0.00170137
Heightened Def Con from 0.00170377 to 0.00170377
Heightened Def Con from 0.00170633 to 0.00170634
Heightened Def Con from 0.00170882 to 0.00170882
Heightened Def Con from 0.00171129 to 0.00171129
Heightened Def Con from 0.00171387 to 0.00171387
Heightened Def Con from 0.00171625 to 0.00171625
Heightened Def Con from 0.00171891 to 0.00171892
Heightened Def Con from 0.00172121 to 0.00172121
Heightened Def Con from 0.00172395 to 0.00172395
Heightened Def Con from 0.00172618 to 0.00172618
Heightened Def Con from 0.00172899 to 0.00172899
Heightened Def Con from 0.00173115 to 0.00173115
Heightened Def Con from 0.00173401 to 0.00173401
Heightened Def Con from 0.00173613 to 0.00173613
Heightened Def Con from 0.00173903 to 0.00173904
Heightened Def Con from 0.00174112 to 0.00174112
Heightened Def Con from 0.00174405 to 0.00174405
Heightened Def Con from 0.00174611 to 0.00174611
Heightened Def Con from 0.00174906 to 0.00174906
Heightened Def Con from 0.00175111 to 0.00175111
Heightened Def Con from 0.00175406 to 0.00175406
Heightened Def Con from 0.00175612 to 0.00175612
Heightened Def Con from 0.00175905 to 0.00175905
Heightened Def Con from 0.00176113 to 0.00176113
Heightened Def Con from 0.00176404 to 0.00176404
Heightened Def Con from 0.00176615 to 0.00176616
Heightened Def Con from 0.00176902 to 0.00176902
Heightened Def Con from 0.00177118 to 0.00177118
Heightened Def Con from 0.00177399 to 0.00177399
Heightened Def Con from 0.00177622 to 0.00177622
Heightened Def Con from 0.00177896 to 0.00177896
Heightened Def Con from 0.00178126 to 0.00178126
Heightened Def Con from 0.00178392 to 0.00178392
Heightened Def Con from 0.0017863 to 0.0017863
Heightened Def Con from 0.00178888 to 0.00178888
Heightened Def Con from 0.00179135 to 0.00179135
Heightened Def Con from 0.00179384 to 0.00179384
Heightened Def Con from 0.0017964 to 0.0017964
Heightened Def Con from 0.00179879 to 0.00179879
Heightened Def Con from 0.00180145 to 0.00180145
Heightened Def Con from 0.00180376 to 0.00180376
Heightened Def Con from 0.0018065 to 0.0018065
Heightened Def Con from 0.00180871 to 0.00180871
Heightened Def Con from 0.00181155 to 0.00181155
Heightened Def Con from 0.00181367 to 0.00181367
Heightened Def Con from 0.00181659 to 0.00181659
Heightened Def Con from 0.00181863 to 0.00181863
Heightened Def Con from 0.00182163 to 0.00182163
Heightened Def Con from 0.00182359 to 0.00182359
Heightened Def Con from 0.00182666 to 0.00182666
Heightened Def Con from 0.00182856 to 0.00182856
Heightened Def Con from 0.0018317 to 0.0018317
Heightened Def Con from 0.00183354 to 0.00183354
Heightened Def Con from 0.00183673 to 0.00183673
Heightened Def Con from 0.00183852 to 0.00183852
Heightened Def Con from 0.00184174 to 0.00184175
Heightened Def Con from 0.00184351 to 0.00184351
Heightened Def Con from 0.00184676 to 0.00184676
Heightened Def Con from 0.0018485 to 0.0018485
Heightened Def Con from 0.00185176 to 0.00185176
Heightened Def Con from 0.00185351 to 0.00185351
Heightened Def Con from 0.00185676 to 0.00185676
Heightened Def Con from 0.00185852 to 0.00185853
Heightened Def Con from 0.00186175 to 0.00186175
Heightened Def Con from 0.00186354 to 0.00186354
Heightened Def Con from 0.00186673 to 0.00186673
Heightened Def Con from 0.00186856 to 0.00186856
Heightened Def Con from 0.00187171 to 0.00187171
Heightened Def Con from 0.0018736 to 0.0018736
Heightened Def Con from 0.00187668 to 0.00187668
Heightened Def Con from 0.00187863 to 0.00187863
Heightened Def Con from 0.00188164 to 0.00188164
Heightened Def Con from 0.00188368 to 0.00188368
Heightened Def Con from 0.0018866 to 0.0018866
Heightened Def Con from 0.00188872 to 0.00188873
Heightened Def Con from 0.00189156 to 0.00189156
Heightened Def Con from 0.00189378 to 0.00189378
Heightened Def Con from 0.00189652 to 0.00189652
Heightened Def Con from 0.00189882 to 0.00189882
Heightened Def Con from 0.00190147 to 0.00190147
Heightened Def Con from 0.00190387 to 0.00190387
Heightened Def Con from 0.00190643 to 0.00190643
Heightened Def Con from 0.00190892 to 0.00190892
Heightened Def Con from 0.00191139 to 0.00191139
Heightened Def Con from 0.00191397 to 0.00191397
Heightened Def Con from 0.00191635 to 0.00191635
Heightened Def Con from 0.00191901 to 0.00191902
Heightened Def Con from 0.00192131 to 0.00192131
Heightened Def Con from 0.00192405 to 0.00192405
Heightened Def Con from 0.00192627 to 0.00192627
Heightened Def Con from 0.00193125 to 0.00193125
Heightened Def Con from 0.00193412 to 0.00193412
Heightened Def Con from 0.00193623 to 0.00193623
Heightened Def Con from 0.00193914 to 0.00193914
Heightened Def Con from 0.00194122 to 0.00194122
Heightened Def Con from 0.00194415 to 0.00194415
Heightened Def Con from 0.00194621 to 0.00194621
Heightened Def Con from 0.00195121 to 0.00195121
Heightened Def Con from 0.00195416 to 0.00195416
Heightened Def Con from 0.00195622 to 0.00195622
Heightened Def Con from 0.00195915 to 0.00195915
Heightened Def Con from 0.00196124 to 0.00196124
Heightened Def Con from 0.00196414 to 0.00196414
Heightened Def Con from 0.00196626 to 0.00196626
Heightened Def Con from 0.00196912 to 0.00196912
Heightened Def Con from 0.00197128 to 0.00197128
Heightened Def Con from 0.00197409 to 0.00197409
Heightened Def Con from 0.00197632 to 0.00197632
Heightened Def Con from 0.00197906 to 0.00197906
Heightened Def Con from 0.00198136 to 0.00198136
Heightened Def Con from 0.00198402 to 0.00198402
Heightened Def Con from 0.0019864 to 0.0019864
Heightened Def Con from 0.00198898 to 0.00198898
Heightened Def Con from 0.00199145 to 0.00199145
Heightened Def Con from 0.00199394 to 0.00199394
Heightened Def Con from 0.00199649 to 0.00199649
Heightened Def Con from 0.00200154 to 0.00200154
Heightened Def Con from 0.00200385 to 0.00200385
Heightened Def Con from 0.00200659 to 0.0020066
Heightened Def Con from 0.00200881 to 0.00200881
Heightened Def Con from 0.00201164 to 0.00201164
Heightened Def Con from 0.00201377 to 0.00201377
Heightened Def Con from 0.00201669 to 0.00201669
Heightened Def Con from 0.00201873 to 0.00201873
Heightened Def Con from 0.00202173 to 0.00202173
Heightened Def Con from 0.00202369 to 0.00202369
Heightened Def Con from 0.00202677 to 0.00202677
Heightened Def Con from 0.00202867 to 0.00202867
Heightened Def Con from 0.0020318 to 0.0020318
Heightened Def Con from 0.00203364 to 0.00203365
Heightened Def Con from 0.00203682 to 0.00203682
Heightened Def Con from 0.00203862 to 0.00203862
Heightened Def Con from 0.00204184 to 0.00204184
Heightened Def Con from 0.00204361 to 0.00204361
Heightened Def Con from 0.00204685 to 0.00204685
Heightened Def Con from 0.00204861 to 0.00204861
Heightened Def Con from 0.00205185 to 0.00205185
Heightened Def Con from 0.00205361 to 0.00205361
Heightened Def Con from 0.00205685 to 0.00205685
Heightened Def Con from 0.00205862 to 0.00205862
Heightened Def Con from 0.00206184 to 0.00206184
Heightened Def Con from 0.00206364 to 0.00206365
Heightened Def Con from 0.00206682 to 0.00206682
Heightened Def Con from 0.00206867 to 0.00206867
Heightened Def Con from 0.0020718 to 0.0020718
Heightened Def Con from 0.0020737 to 0.0020737
Heightened Def Con from 0.00207677 to 0.00207677
Heightened Def Con from 0.00208173 to 0.00208173
Heightened Def Con from 0.00208378 to 0.00208378
Heightened Def Con from 0.00208669 to 0.00208669
Heightened Def Con from 0.00208882 to 0.00208882
Heightened Def Con from 0.00209165 to 0.00209165
Heightened Def Con from 0.00209387 to 0.00209387
Heightened Def Con from 0.00209892 to 0.00209892
Heightened Def Con from 0.00210157 to 0.00210157
Heightened Def Con from 0.00210397 to 0.00210397
Heightened Def Con from 0.00210652 to 0.00210652
Heightened Def Con from 0.00210902 to 0.00210902
Heightened Def Con from 0.00211148 to 0.00211148
Heightened Def Con from 0.00211407 to 0.00211407
Heightened Def Con from 0.00211644 to 0.00211644
Heightened Def Con from 0.00211911 to 0.00211911
Heightened Def Con from 0.0021214 to 0.0021214
Heightened Def Con from 0.00212415 to 0.00212415
Heightened Def Con from 0.00212637 to 0.00212637
Heightened Def Con from 0.00212918 to 0.00212919
Heightened Def Con from 0.00213134 to 0.00213134
Heightened Def Con from 0.00213421 to 0.00213421
Heightened Def Con from 0.00213633 to 0.00213633
Heightened Def Con from 0.00213923 to 0.00213923
Heightened Def Con from 0.00214131 to 0.00214131
Heightened Def Con from 0.00214425 to 0.00214425
Heightened Def Con from 0.00214631 to 0.00214631
Heightened Def Con from 0.00214925 to 0.00214925
Heightened Def Con from 0.00215131 to 0.00215131
Heightened Def Con from 0.00215425 to 0.00215425
Heightened Def Con from 0.00215631 to 0.00215632
Heightened Def Con from 0.00215925 to 0.00215925
Heightened Def Con from 0.00216133 to 0.00216133
Heightened Def Con from 0.00216423 to 0.00216423
Heightened Def Con from 0.00216636 to 0.00216636
Heightened Def Con from 0.00216922 to 0.00216922
Heightened Def Con from 0.00217138 to 0.00217138
Heightened Def Con from 0.00217419 to 0.00217419
Heightened Def Con from 0.00217642 to 0.00217642
Heightened Def Con from 0.00217915 to 0.00217915
Heightened Def Con from 0.00218412 to 0.00218412
Heightened Def Con from 0.0021865 to 0.0021865
Heightened Def Con from 0.00218908 to 0.00218908
Heightened Def Con from 0.00219155 to 0.00219155
Heightened Def Con from 0.00219403 to 0.00219404
Heightened Def Con from 0.0021966 to 0.0021966
Heightened Def Con from 0.00219899 to 0.00219899
Heightened Def Con from 0.00220165 to 0.00220165
Heightened Def Con from 0.00220395 to 0.00220395
Heightened Def Con from 0.0022067 to 0.0022067
Heightened Def Con from 0.0022089 to 0.0022089
Heightened Def Con from 0.00221174 to 0.00221174
Heightened Def Con from 0.00221386 to 0.00221386
Heightened Def Con from 0.00221679 to 0.0022168
Heightened Def Con from 0.00221882 to 0.00221882
Heightened Def Con from 0.00222183 to 0.00222183
Heightened Def Con from 0.00222379 to 0.00222379
Heightened Def Con from 0.00222687 to 0.00222687
Heightened Def Con from 0.00222876 to 0.00222876
Heightened Def Con from 0.0022319 to 0.0022319
Heightened Def Con from 0.00223374 to 0.00223374
Heightened Def Con from 0.00223693 to 0.00223693
Heightened Def Con from 0.00223872 to 0.00223872
Heightened Def Con from 0.00224195 to 0.00224195
Heightened Def Con from 0.00224371 to 0.00224371
Heightened Def Con from 0.00224696 to 0.00224696
Heightened Def Con from 0.00224871 to 0.00224871
Heightened Def Con from 0.00225196 to 0.00225196
Heightened Def Con from 0.00225371 to 0.00225371
Heightened Def Con from 0.00225696 to 0.00225696
Heightened Def Con from 0.00225872 to 0.00225872
Heightened Def Con from 0.00226195 to 0.00226195
Heightened Def Con from 0.00226374 to 0.00226374
Heightened Def Con from 0.00226692 to 0.00226692
Heightened Def Con from 0.00226877 to 0.00226877
Heightened Def Con from 0.0022719 to 0.0022719
Heightened Def Con from 0.0022738 to 0.0022738
Heightened Def Con from 0.00227687 to 0.00227687
Heightened Def Con from 0.00227883 to 0.00227884
Heightened Def Con from 0.00228184 to 0.00228184
Heightened Def Con from 0.00228388 to 0.00228388
Heightened Def Con from 0.0022868 to 0.0022868
Heightened Def Con from 0.00228892 to 0.00228892
Heightened Def Con from 0.00229175 to 0.00229175
Heightened Def Con from 0.00229397 to 0.00229397
Heightened Def Con from 0.00229671 to 0.00229671
Heightened Def Con from 0.00229902 to 0.00229902
Heightened Def Con from 0.00230166 to 0.00230166
Heightened Def Con from 0.00230407 to 0.00230407
Heightened Def Con from 0.00230662 to 0.00230662
Heightened Def Con from 0.00230911 to 0.00230912
Heightened Def Con from 0.00231158 to 0.00231158
Heightened Def Con from 0.00231416 to 0.00231416
Heightened Def Con from 0.00231654 to 0.00231654
Heightened Def Con from 0.00231921 to 0.00231921
Heightened Def Con from 0.0023215 to 0.0023215
Heightened Def Con from 0.00232424 to 0.00232425
Heightened Def Con from 0.00232647 to 0.00232647
Heightened Def Con from 0.00232928 to 0.00232928
Heightened Def Con from 0.00233145 to 0.00233145
Heightened Def Con from 0.00233431 to 0.00233432
Heightened Def Con from 0.00233643 to 0.00233643
Heightened Def Con from 0.00233933 to 0.00233934
Heightened Def Con from 0.00234142 to 0.00234142
Heightened Def Con from 0.00234434 to 0.00234435
Heightened Def Con from 0.00234641 to 0.00234641
Heightened Def Con from 0.00234935 to 0.00234935
Heightened Def Con from 0.00235141 to 0.00235141
Heightened Def Con from 0.00235435 to 0.00235435
Heightened Def Con from 0.00235642 to 0.00235642
Heightened Def Con from 0.00235935 to 0.00235935
Heightened Def Con from 0.00236144 to 0.00236144
Heightened Def Con from 0.00236433 to 0.00236433
Heightened Def Con from 0.00236646 to 0.00236646
Heightened Def Con from 0.00236932 to 0.00236932
Heightened Def Con from 0.00237149 to 0.00237149
Heightened Def Con from 0.00237429 to 0.00237429
Heightened Def Con from 0.00237652 to 0.00237652
Heightened Def Con from 0.00237926 to 0.00237926
Heightened Def Con from 0.00238157 to 0.00238157
Heightened Def Con from 0.00238422 to 0.00238422
Heightened Def Con from 0.00238661 to 0.00238661
Heightened Def Con from 0.00238918 to 0.00238919
Heightened Def Con from 0.00239166 to 0.00239166
Heightened Def Con from 0.00239414 to 0.00239414
Heightened Def Con from 0.00239671 to 0.00239671
Heightened Def Con from 0.00239909 to 0.0023991
Heightened Def Con from 0.00240176 to 0.00240176
Heightened Def Con from 0.00240405 to 0.00240405
Heightened Def Con from 0.00240681 to 0.00240681
Heightened Def Con from 0.00240901 to 0.00240901
Heightened Def Con from 0.00241186 to 0.00241186
Heightened Def Con from 0.00241397 to 0.00241397
Heightened Def Con from 0.0024169 to 0.0024169
Heightened Def Con from 0.00241893 to 0.00241893
Heightened Def Con from 0.00242194 to 0.00242194
Heightened Def Con from 0.0024239 to 0.0024239
Heightened Def Con from 0.00242698 to 0.00242698
Heightened Def Con from 0.00242887 to 0.00242887
Heightened Def Con from 0.00243201 to 0.00243201
Heightened Def Con from 0.00243385 to 0.00243385
Heightened Def Con from 0.00243703 to 0.00243703
Heightened Def Con from 0.00243883 to 0.00243883
Heightened Def Con from 0.00244205 to 0.00244205
Heightened Def Con from 0.00244382 to 0.00244382
Heightened Def Con from 0.00244706 to 0.00244707
Heightened Def Con from 0.00244882 to 0.00244882
Heightened Def Con from 0.00245207 to 0.00245207
Heightened Def Con from 0.00245382 to 0.00245382
Heightened Def Con from 0.00245707 to 0.00245707
Heightened Def Con from 0.00245883 to 0.00245884
Heightened Def Con from 0.00246205 to 0.00246205
Heightened Def Con from 0.00246385 to 0.00246386
Heightened Def Con from 0.00246703 to 0.00246703
Heightened Def Con from 0.00246888 to 0.00246888
Heightened Def Con from 0.002472 to 0.002472
Heightened Def Con from 0.00247391 to 0.00247391
Heightened Def Con from 0.00247698 to 0.00247698
Heightened Def Con from 0.00247895 to 0.00247895
Heightened Def Con from 0.00248194 to 0.00248194
Heightened Def Con from 0.00248399 to 0.00248399
Heightened Def Con from 0.0024869 to 0.0024869
Heightened Def Con from 0.00248903 to 0.00248903
Heightened Def Con from 0.00249186 to 0.00249186
Heightened Def Con from 0.00249408 to 0.00249408
Heightened Def Con from 0.00249682 to 0.00249682
Heightened Def Con from 0.00249913 to 0.00249913
Heightened Def Con from 0.00250177 to 0.00250177
Heightened Def Con from 0.00250418 to 0.00250418
Heightened Def Con from 0.00250673 to 0.00250673
Heightened Def Con from 0.00250923 to 0.00250923
Heightened Def Con from 0.00251169 to 0.00251169
Heightened Def Con from 0.00251427 to 0.00251428
Heightened Def Con from 0.00251665 to 0.00251665
Heightened Def Con from 0.00251932 to 0.00251932
Heightened Def Con from 0.00252161 to 0.00252161
Heightened Def Con from 0.00252436 to 0.00252436
Heightened Def Con from 0.00252658 to 0.00252658
Heightened Def Con from 0.00252939 to 0.00252939
Heightened Def Con from 0.00253155 to 0.00253155
Heightened Def Con from 0.00253441 to 0.00253441
Heightened Def Con from 0.00253654 to 0.00253654
Heightened Def Con from 0.00253943 to 0.00253944
Heightened Def Con from 0.00254152 to 0.00254152
Heightened Def Con from 0.00254445 to 0.00254445
Heightened Def Con from 0.00254651 to 0.00254652
Heightened Def Con from 0.00254946 to 0.00254946
Heightened Def Con from 0.00255151 to 0.00255151
Heightened Def Con from 0.00255446 to 0.00255446
Heightened Def Con from 0.00255652 to 0.00255652
Heightened Def Con from 0.00256154 to 0.00256154
Heightened Def Con from 0.00256444 to 0.00256444
Heightened Def Con from 0.00256656 to 0.00256656
Heightened Def Con from 0.00256941 to 0.00256941
Heightened Def Con from 0.00257159 to 0.00257159
Heightened Def Con from 0.00257439 to 0.00257439
Heightened Def Con from 0.00257663 to 0.00257663
Heightened Def Con from 0.00257936 to 0.00257936
Heightened Def Con from 0.00258167 to 0.00258167
Heightened Def Con from 0.00258432 to 0.00258432
Heightened Def Con from 0.00258671 to 0.00258671
Heightened Def Con from 0.00258928 to 0.00258928
Heightened Def Con from 0.00259176 to 0.00259176
Heightened Def Con from 0.00259424 to 0.00259424
Heightened Def Con from 0.00259681 to 0.00259681
Heightened Def Con from 0.00259919 to 0.0025992
Heightened Def Con from 0.00260186 to 0.00260186
Heightened Def Con from 0.00260415 to 0.00260416
Heightened Def Con from 0.00260691 to 0.00260691
Heightened Def Con from 0.00260911 to 0.00260911
Heightened Def Con from 0.00261196 to 0.00261196
Heightened Def Con from 0.00261407 to 0.00261407
Heightened Def Con from 0.002617 to 0.002617
Heightened Def Con from 0.00261903 to 0.00261903
Heightened Def Con from 0.00262204 to 0.00262204
Heightened Def Con from 0.002624 to 0.002624
Heightened Def Con from 0.00262707 to 0.00262708
Heightened Def Con from 0.00262897 to 0.00262897
Heightened Def Con from 0.0026321 to 0.0026321
Heightened Def Con from 0.00263394 to 0.00263394
Heightened Def Con from 0.00263713 to 0.00263713
Heightened Def Con from 0.00263893 to 0.00263893
Heightened Def Con from 0.00264215 to 0.00264215
Heightened Def Con from 0.00264392 to 0.00264392
Heightened Def Con from 0.00264716 to 0.00264716
Heightened Def Con from 0.00264891 to 0.00264891
Heightened Def Con from 0.00265392 to 0.00265392
Heightened Def Con from 0.00265716 to 0.00265716
Heightened Def Con from 0.00265893 to 0.00265893
Heightened Def Con from 0.00266215 to 0.00266215
Heightened Def Con from 0.00266395 to 0.00266395
Heightened Def Con from 0.00266713 to 0.00266713
Heightened Def Con from 0.00266898 to 0.00266898
Heightened Def Con from 0.00267211 to 0.00267211
Heightened Def Con from 0.00267401 to 0.00267402
Heightened Def Con from 0.00267708 to 0.00267708
Heightened Def Con from 0.00267905 to 0.00267905
Heightened Def Con from 0.00268204 to 0.00268204
Heightened Def Con from 0.00268409 to 0.00268409
Heightened Def Con from 0.00268914 to 0.00268914
Heightened Def Con from 0.00269197 to 0.00269197
Heightened Def Con from 0.00269419 to 0.00269419
Heightened Def Con from 0.00269692 to 0.00269692
Heightened Def Con from 0.00269923 to 0.00269923
Heightened Def Con from 0.00270188 to 0.00270188
Heightened Def Con from 0.00270428 to 0.00270428
Heightened Def Con from 0.00270684 to 0.00270684
Heightened Def Con from 0.00270933 to 0.00270933
Heightened Def Con from 0.00271178 to 0.00271178
Heightened Def Con from 0.00271438 to 0.00271438
Heightened Def Con from 0.00271675 to 0.00271675
Heightened Def Con from 0.00271942 to 0.00271942
Heightened Def Con from 0.00272171 to 0.00272171
Heightened Def Con from 0.00272446 to 0.00272446
Heightened Def Con from 0.00272668 to 0.00272668
Heightened Def Con from 0.00272949 to 0.00272949
Heightened Def Con from 0.00273165 to 0.00273165
Heightened Def Con from 0.00273452 to 0.00273452
Heightened Def Con from 0.00273664 to 0.00273664
Heightened Def Con from 0.00273954 to 0.00273954
Heightened Def Con from 0.00274162 to 0.00274162
Heightened Def Con from 0.00274455 to 0.00274455
Heightened Def Con from 0.00274662 to 0.00274662
Heightened Def Con from 0.00274956 to 0.00274956
Heightened Def Con from 0.00275162 to 0.00275162
Heightened Def Con from 0.00275456 to 0.00275456
Heightened Def Con from 0.00275663 to 0.00275663
Heightened Def Con from 0.00275955 to 0.00275955
Heightened Def Con from 0.00276164 to 0.00276164
Heightened Def Con from 0.00276454 to 0.00276454
Heightened Def Con from 0.00276667 to 0.00276667
Heightened Def Con from 0.00276952 to 0.00276952
Heightened Def Con from 0.00277169 to 0.00277169
Heightened Def Con from 0.00277449 to 0.00277449
Heightened Def Con from 0.00277673 to 0.00277673
Heightened Def Con from 0.00277946 to 0.00277946
Heightened Def Con from 0.00278177 to 0.00278177
Heightened Def Con from 0.00278442 to 0.00278442
Heightened Def Con from 0.00278681 to 0.00278681
Heightened Def Con from 0.00278938 to 0.00278938
Heightened Def Con from 0.00279186 to 0.00279186
Heightened Def Con from 0.00279434 to 0.00279434
Heightened Def Con from 0.00279691 to 0.00279691
Heightened Def Con from 0.00279929 to 0.0027993
Heightened Def Con from 0.00280196 to 0.00280196
Heightened Def Con from 0.00280425 to 0.00280426
Heightened Def Con from 0.00280701 to 0.00280701
Heightened Def Con from 0.00280921 to 0.00280921
Heightened Def Con from 0.00281205 to 0.00281206
Heightened Def Con from 0.00281417 to 0.00281417
Heightened Def Con from 0.0028171 to 0.0028171
Heightened Def Con from 0.00281913 to 0.00281913
Heightened Def Con from 0.00282214 to 0.00282214
Heightened Def Con from 0.0028241 to 0.0028241
Heightened Def Con from 0.00282717 to 0.00282717
Heightened Def Con from 0.00282907 to 0.00282907
Heightened Def Con from 0.00283221 to 0.00283221
Heightened Def Con from 0.00283404 to 0.00283404
Heightened Def Con from 0.00283723 to 0.00283723
Heightened Def Con from 0.00283903 to 0.00283903
Heightened Def Con from 0.00284225 to 0.00284225
Heightened Def Con from 0.00284402 to 0.00284402
Heightened Def Con from 0.00284726 to 0.00284726
Heightened Def Con from 0.00284902 to 0.00284902
Heightened Def Con from 0.00285226 to 0.00285226
Heightened Def Con from 0.00285402 to 0.00285402
Heightened Def Con from 0.00285726 to 0.00285726
Heightened Def Con from 0.00285903 to 0.00285903
Heightened Def Con from 0.00286225 to 0.00286225
Heightened Def Con from 0.00286405 to 0.00286405
Heightened Def Con from 0.00286723 to 0.00286723
Heightened Def Con from 0.00286908 to 0.00286908
Heightened Def Con from 0.00287221 to 0.00287221
Heightened Def Con from 0.00287411 to 0.00287411
Heightened Def Con from 0.00287718 to 0.00287718
Heightened Def Con from 0.00287915 to 0.00287915
Heightened Def Con from 0.00288215 to 0.00288215
Heightened Def Con from 0.00288419 to 0.00288419
Heightened Def Con from 0.00288711 to 0.00288711
Heightened Def Con from 0.00288924 to 0.00288924
Heightened Def Con from 0.00289207 to 0.00289207
Heightened Def Con from 0.00289429 to 0.00289429
Heightened Def Con from 0.00289934 to 0.00289934
Heightened Def Con from 0.00290198 to 0.00290198
Heightened Def Con from 0.00290439 to 0.0029044
Heightened Def Con from 0.00290694 to 0.00290694
Heightened Def Con from 0.00290944 to 0.00290944
Heightened Def Con from 0.0029119 to 0.0029119
Heightened Def Con from 0.00291449 to 0.00291449
Heightened Def Con from 0.00291686 to 0.00291686
Heightened Def Con from 0.00291953 to 0.00291953
Heightened Def Con from 0.00292182 to 0.00292182
Heightened Def Con from 0.00292457 to 0.00292457
Heightened Def Con from 0.00292679 to 0.00292679
Heightened Def Con from 0.00292961 to 0.00292961
Heightened Def Con from 0.00293177 to 0.00293177
Heightened Def Con from 0.00293463 to 0.00293463
Heightened Def Con from 0.00293675 to 0.00293675
Heightened Def Con from 0.00293965 to 0.00293965
Heightened Def Con from 0.00294174 to 0.00294174
Heightened Def Con from 0.00294673 to 0.00294673
Heightened Def Con from 0.00294967 to 0.00294968
Heightened Def Con from 0.00295173 to 0.00295173
Heightened Def Con from 0.00295467 to 0.00295467
Heightened Def Con from 0.00295674 to 0.00295674
Heightened Def Con from 0.00295967 to 0.00295967
Heightened Def Con from 0.00296175 to 0.00296176
Heightened Def Con from 0.00296465 to 0.00296466
Heightened Def Con from 0.00296678 to 0.00296678
Heightened Def Con from 0.00296963 to 0.00296963
Heightened Def Con from 0.0029718 to 0.0029718
Heightened Def Con from 0.0029746 to 0.0029746
Heightened Def Con from 0.00297684 to 0.00297684
Heightened Def Con from 0.00297956 to 0.00297956
Heightened Def Con from 0.00298188 to 0.00298188
Heightened Def Con from 0.00298453 to 0.00298453
Heightened Def Con from 0.00298692 to 0.00298692
Heightened Def Con from 0.00298949 to 0.00298949
Heightened Def Con from 0.00299197 to 0.00299197
Heightened Def Con from 0.00299445 to 0.00299446
Heightened Def Con from 0.00299702 to 0.00299702
Heightened Def Con from 0.0029994 to 0.0029994
Heightened Def Con from 0.00300207 to 0.00300208
Heightened Def Con from 0.00300436 to 0.00300436
Heightened Def Con from 0.00300712 to 0.00300712
Heightened Def Con from 0.00300931 to 0.00300932
Heightened Def Con from 0.00301216 to 0.00301216
Heightened Def Con from 0.00301427 to 0.00301427
Heightened Def Con from 0.00301721 to 0.00301721
Heightened Def Con from 0.00301924 to 0.00301924
Heightened Def Con from 0.00302225 to 0.00302225
Heightened Def Con from 0.0030242 to 0.00302421
Heightened Def Con from 0.00302729 to 0.00302729
Heightened Def Con from 0.00302917 to 0.00302917
Heightened Def Con from 0.00303232 to 0.00303232
Heightened Def Con from 0.00303415 to 0.00303415
Heightened Def Con from 0.00303734 to 0.00303734
Heightened Def Con from 0.00303913 to 0.00303913
Heightened Def Con from 0.00304235 to 0.00304235
Heightened Def Con from 0.00304412 to 0.00304412
Heightened Def Con from 0.00304737 to 0.00304737
Heightened Def Con from 0.00304912 to 0.00304912
Heightened Def Con from 0.00305237 to 0.00305237
Heightened Def Con from 0.00305413 to 0.00305413
Heightened Def Con from 0.00305737 to 0.00305737
Heightened Def Con from 0.00305914 to 0.00305914
Heightened Def Con from 0.00306235 to 0.00306235
Heightened Def Con from 0.00306416 to 0.00306416
Heightened Def Con from 0.00306733 to 0.00306733
Heightened Def Con from 0.00306918 to 0.00306919
Heightened Def Con from 0.00307231 to 0.00307231
Heightened Def Con from 0.00307422 to 0.00307422
Heightened Def Con from 0.00307728 to 0.00307728
Heightened Def Con from 0.00307925 to 0.00307925
Heightened Def Con from 0.00308225 to 0.00308225
Heightened Def Con from 0.0030843 to 0.0030843
Heightened Def Con from 0.00308721 to 0.00308721
Heightened Def Con from 0.00308934 to 0.00308934
Heightened Def Con from 0.00309217 to 0.00309217
Heightened Def Con from 0.00309439 to 0.00309439
Heightened Def Con from 0.00309713 to 0.00309713
Heightened Def Con from 0.00309944 to 0.00309944
Heightened Def Con from 0.00310208 to 0.00310208
Heightened Def Con from 0.00310449 to 0.00310449
Heightened Def Con from 0.00310704 to 0.00310704
Heightened Def Con from 0.00310954 to 0.00310954
Heightened Def Con from 0.003112 to 0.003112
Heightened Def Con from 0.00311459 to 0.00311459
Heightened Def Con from 0.00311696 to 0.00311696
Heightened Def Con from 0.00311963 to 0.00311963
Heightened Def Con from 0.00312192 to 0.00312192
Heightened Def Con from 0.00312467 to 0.00312467
Heightened Def Con from 0.00312689 to 0.00312689
Heightened Def Con from 0.0031297 to 0.0031297
Heightened Def Con from 0.00313187 to 0.00313187
Heightened Def Con from 0.00313473 to 0.00313473
Heightened Def Con from 0.00313684 to 0.00313685
Heightened Def Con from 0.00313975 to 0.00313975
Heightened Def Con from 0.00314183 to 0.00314183
Heightened Def Con from 0.00314477 to 0.00314477
Heightened Def Con from 0.00314683 to 0.00314683
Heightened Def Con from 0.00314977 to 0.00314977
Heightened Def Con from 0.00315183 to 0.00315183
Heightened Def Con from 0.00315477 to 0.00315477
Heightened Def Con from 0.00315684 to 0.00315684
Heightened Def Con from 0.00315976 to 0.00315977
Heightened Def Con from 0.00316186 to 0.00316186
Heightened Def Con from 0.00316475 to 0.00316475
Heightened Def Con from 0.00316688 to 0.00316688
Heightened Def Con from 0.00316973 to 0.00316973
Heightened Def Con from 0.00317191 to 0.00317191
Heightened Def Con from 0.0031747 to 0.0031747
Heightened Def Con from 0.00317694 to 0.00317694
Heightened Def Con from 0.00317967 to 0.00317967
Heightened Def Con from 0.00318199 to 0.00318199
Heightened Def Con from 0.00318463 to 0.00318463
Heightened Def Con from 0.00318703 to 0.00318703
Heightened Def Con from 0.00318959 to 0.0031896
Heightened Def Con from 0.00319208 to 0.00319208
Heightened Def Con from 0.00319455 to 0.00319455
Heightened Def Con from 0.00319712 to 0.00319712
Heightened Def Con from 0.0031995 to 0.00319951
Heightened Def Con from 0.00320217 to 0.00320217
Heightened Def Con from 0.00320446 to 0.00320447
Heightened Def Con from 0.00320722 to 0.00320722
Heightened Def Con from 0.00320942 to 0.00320942
Heightened Def Con from 0.00321227 to 0.00321227
Heightened Def Con from 0.00321438 to 0.00321438
Heightened Def Con from 0.00321732 to 0.00321732
Heightened Def Con from 0.00321934 to 0.00321934
Heightened Def Con from 0.00322235 to 0.00322235
Heightened Def Con from 0.00322431 to 0.00322431
Heightened Def Con from 0.00322739 to 0.00322739
Heightened Def Con from 0.00322928 to 0.00322928
Heightened Def Con from 0.00323242 to 0.00323242
Heightened Def Con from 0.00323425 to 0.00323426
Heightened Def Con from 0.00323745 to 0.00323745
Heightened Def Con from 0.00323924 to 0.00323924
Heightened Def Con from 0.00324246 to 0.00324247
Heightened Def Con from 0.00324423 to 0.00324423
Heightened Def Con from 0.00324747 to 0.00324747
Heightened Def Con from 0.00324923 to 0.00324923
Heightened Def Con from 0.00325248 to 0.00325248
Heightened Def Con from 0.00325423 to 0.00325424
Heightened Def Con from 0.00325747 to 0.00325747
Heightened Def Con from 0.00325924 to 0.00325925
Heightened Def Con from 0.00326246 to 0.00326246
Heightened Def Con from 0.00326426 to 0.00326427
Heightened Def Con from 0.00326744 to 0.00326744
Heightened Def Con from 0.00326929 to 0.00326929
Heightened Def Con from 0.00327242 to 0.00327242
Heightened Def Con from 0.00327432 to 0.00327432
Heightened Def Con from 0.00327739 to 0.00327739
Heightened Def Con from 0.00327936 to 0.00327936
Heightened Def Con from 0.00328235 to 0.00328236
Heightened Def Con from 0.0032844 to 0.0032844
Heightened Def Con from 0.00328732 to 0.00328732
Heightened Def Con from 0.00328945 to 0.00328945
Heightened Def Con from 0.00329228 to 0.00329228
Heightened Def Con from 0.00329449 to 0.0032945
Heightened Def Con from 0.00329723 to 0.00329723
Heightened Def Con from 0.00329955 to 0.00329955
Heightened Def Con from 0.00330219 to 0.00330219
Heightened Def Con from 0.0033046 to 0.0033046
Heightened Def Con from 0.00330714 to 0.00330714
Heightened Def Con from 0.00330965 to 0.00330965
Heightened Def Con from 0.00331211 to 0.00331211
Heightened Def Con from 0.00331469 to 0.00331469
Heightened Def Con from 0.00331706 to 0.00331706
Heightened Def Con from 0.00331974 to 0.00331974
Heightened Def Con from 0.00332203 to 0.00332204
Heightened Def Con from 0.00332477 to 0.00332478
Heightened Def Con from 0.00332699 to 0.00332699
Heightened Def Con from 0.00332981 to 0.00332981
Heightened Def Con from 0.00333196 to 0.00333197
Heightened Def Con from 0.00333483 to 0.00333484
Heightened Def Con from 0.00333695 to 0.00333695
Heightened Def Con from 0.00333985 to 0.00333986
Heightened Def Con from 0.00334193 to 0.00334194
Heightened Def Con from 0.00334487 to 0.00334487
Heightened Def Con from 0.00334693 to 0.00334693
Heightened Def Con from 0.00334988 to 0.00334988
Heightened Def Con from 0.00335193 to 0.00335193
Heightened Def Con from 0.00335487 to 0.00335487
Heightened Def Con from 0.00335694 to 0.00335694
Heightened Def Con from 0.00335986 to 0.00335986
Heightened Def Con from 0.00336196 to 0.00336196
Heightened Def Con from 0.00336485 to 0.00336485
Heightened Def Con from 0.00336698 to 0.00336698
Heightened Def Con from 0.00336983 to 0.00336983
Heightened Def Con from 0.00337201 to 0.00337201
Heightened Def Con from 0.0033748 to 0.0033748
Heightened Def Con from 0.00337705 to 0.00337705
Heightened Def Con from 0.00337977 to 0.00337977
Heightened Def Con from 0.00338209 to 0.00338209
Heightened Def Con from 0.00338473 to 0.00338473
Heightened Def Con from 0.00338713 to 0.00338713
Heightened Def Con from 0.00338969 to 0.00338969
Heightened Def Con from 0.00339218 to 0.00339218
Heightened Def Con from 0.00339465 to 0.00339465
Heightened Def Con from 0.00339723 to 0.00339723
Heightened Def Con from 0.0033996 to 0.0033996
Heightened Def Con from 0.00340227 to 0.00340228
Heightened Def Con from 0.00340456 to 0.00340456
Heightened Def Con from 0.00340732 to 0.00340732
Heightened Def Con from 0.00340952 to 0.00340952
Heightened Def Con from 0.00341237 to 0.00341237
Heightened Def Con from 0.00341447 to 0.00341448
Heightened Def Con from 0.00341741 to 0.00341741
Heightened Def Con from 0.00341943 to 0.00341944
Heightened Def Con from 0.00342245 to 0.00342245
Heightened Def Con from 0.0034244 to 0.0034244
Heightened Def Con from 0.00342749 to 0.00342749
Heightened Def Con from 0.00342937 to 0.00342937
Heightened Def Con from 0.00343252 to 0.00343252
Heightened Def Con from 0.00343435 to 0.00343435
Heightened Def Con from 0.00343754 to 0.00343754
Heightened Def Con from 0.00343934 to 0.00343934
Heightened Def Con from 0.00344256 to 0.00344256
Heightened Def Con from 0.00344433 to 0.00344433
Heightened Def Con from 0.00344757 to 0.00344757
Heightened Def Con from 0.00344932 to 0.00344932
Heightened Def Con from 0.00345257 to 0.00345257
Heightened Def Con from 0.00345433 to 0.00345433
Heightened Def Con from 0.00345757 to 0.00345757
Heightened Def Con from 0.00345934 to 0.00345934
Heightened Def Con from 0.00346256 to 0.00346256
Heightened Def Con from 0.00346436 to 0.00346436
Heightened Def Con from 0.00346754 to 0.00346754
Heightened Def Con from 0.00346939 to 0.00346939
Heightened Def Con from 0.00347252 to 0.00347252
Heightened Def Con from 0.00347442 to 0.00347442
Heightened Def Con from 0.00347749 to 0.00347749
Heightened Def Con from 0.00347946 to 0.00347946
Heightened Def Con from 0.00348245 to 0.00348245
Heightened Def Con from 0.0034845 to 0.0034845
Heightened Def Con from 0.00348741 to 0.00348742
Heightened Def Con from 0.00348955 to 0.00348955
Heightened Def Con from 0.00349237 to 0.00349237
Heightened Def Con from 0.0034946 to 0.0034946
Heightened Def Con from 0.00349733 to 0.00349733
Heightened Def Con from 0.00349965 to 0.00349965
Heightened Def Con from 0.00350229 to 0.00350229
Heightened Def Con from 0.0035047 to 0.0035047
Heightened Def Con from 0.00350725 to 0.00350725
Heightened Def Con from 0.00350975 to 0.00350975
Heightened Def Con from 0.00351221 to 0.00351221
Heightened Def Con from 0.0035148 to 0.0035148
Heightened Def Con from 0.00351717 to 0.00351717
Heightened Def Con from 0.00351984 to 0.00351984
Heightened Def Con from 0.00352213 to 0.00352213
Heightened Def Con from 0.00352488 to 0.00352488
Heightened Def Con from 0.0035271 to 0.0035271
Heightened Def Con from 0.00352991 to 0.00352992
Heightened Def Con from 0.00353208 to 0.00353208
Heightened Def Con from 0.00353494 to 0.00353494
Heightened Def Con from 0.00353706 to 0.00353706
Heightened Def Con from 0.00353996 to 0.00353996
Heightened Def Con from 0.00354205 to 0.00354205
Heightened Def Con from 0.00354704 to 0.00354704
Heightened Def Con from 0.00354998 to 0.00354998
Heightened Def Con from 0.00355204 to 0.00355204
Heightened Def Con from 0.00355498 to 0.00355498
Heightened Def Con from 0.00355705 to 0.00355705
Heightened Def Con from 0.00355997 to 0.00355998
Heightened Def Con from 0.00356207 to 0.00356207
Heightened Def Con from 0.00356496 to 0.00356496
Heightened Def Con from 0.00356709 to 0.00356709
Heightened Def Con from 0.00356994 to 0.00356994
Heightened Def Con from 0.00357212 to 0.00357212
Heightened Def Con from 0.00357491 to 0.00357491
Heightened Def Con from 0.00357716 to 0.00357716
Heightened Def Con from 0.00357988 to 0.00357988
Heightened Def Con from 0.00358484 to 0.00358484
Heightened Def Con from 0.00358724 to 0.00358724
Heightened Def Con from 0.00358981 to 0.00358981
Heightened Def Con from 0.00359229 to 0.00359229
Heightened Def Con from 0.00359476 to 0.00359476
Heightened Def Con from 0.00359734 to 0.00359734
Heightened Def Con from 0.00360239 to 0.00360239
Heightened Def Con from 0.00360468 to 0.00360468
Heightened Def Con from 0.00360743 to 0.00360743
Heightened Def Con from 0.00360963 to 0.00360963
Heightened Def Con from 0.00361248 to 0.00361248
Heightened Def Con from 0.00361459 to 0.00361459
Heightened Def Con from 0.00361752 to 0.00361752
Heightened Def Con from 0.00361955 to 0.00361955
Heightened Def Con from 0.00362256 to 0.00362256
Heightened Def Con from 0.00362452 to 0.00362452
Heightened Def Con from 0.0036276 to 0.0036276
Heightened Def Con from 0.00362949 to 0.00362949
Heightened Def Con from 0.00363263 to 0.00363263
Heightened Def Con from 0.00363447 to 0.00363447
Heightened Def Con from 0.00363766 to 0.00363766
Heightened Def Con from 0.00363945 to 0.00363945
Heightened Def Con from 0.00364268 to 0.00364268
Heightened Def Con from 0.00364444 to 0.00364444
Heightened Def Con from 0.00364943 to 0.00364943
Heightened Def Con from 0.00365267 to 0.00365267
Heightened Def Con from 0.00365444 to 0.00365444
Heightened Def Con from 0.00365767 to 0.00365767
Heightened Def Con from 0.00365945 to 0.00365945
Heightened Def Con from 0.00366266 to 0.00366266
Heightened Def Con from 0.00366447 to 0.00366447
Heightened Def Con from 0.00366764 to 0.00366764
Heightened Def Con from 0.0036695 to 0.0036695
Heightened Def Con from 0.00367262 to 0.00367262
Heightened Def Con from 0.00367453 to 0.00367453
Heightened Def Con from 0.00367759 to 0.00367759
Heightened Def Con from 0.00367957 to 0.00367957
Heightened Def Con from 0.00368256 to 0.00368256
Heightened Def Con from 0.00368461 to 0.00368461
Heightened Def Con from 0.00368752 to 0.00368752
Heightened Def Con from 0.00368966 to 0.00368966
Heightened Def Con from 0.00369248 to 0.00369248
Heightened Def Con from 0.00369471 to 0.00369471
Heightened Def Con from 0.00369744 to 0.00369744
Heightened Def Con from 0.00369976 to 0.00369976
Heightened Def Con from 0.00370239 to 0.00370239
Heightened Def Con from 0.00370481 to 0.00370481
Heightened Def Con from 0.00370735 to 0.00370735
Heightened Def Con from 0.00370986 to 0.00370986
Heightened Def Con from 0.00371231 to 0.00371231
Heightened Def Con from 0.00371491 to 0.00371491
Heightened Def Con from 0.00371727 to 0.00371727
Heightened Def Con from 0.00371995 to 0.00371995
Heightened Def Con from 0.00372224 to 0.00372224
Heightened Def Con from 0.00372499 to 0.00372499
Heightened Def Con from 0.0037272 to 0.0037272
Heightened Def Con from 0.00373002 to 0.00373003
Heightened Def Con from 0.00373218 to 0.00373218
Heightened Def Con from 0.00373505 to 0.00373505
Heightened Def Con from 0.00373717 to 0.00373717
Heightened Def Con from 0.00374007 to 0.00374007
Heightened Def Con from 0.00374215 to 0.00374215
Heightened Def Con from 0.00374508 to 0.00374508
Heightened Def Con from 0.00374714 to 0.00374715
Heightened Def Con from 0.00375009 to 0.00375009
Heightened Def Con from 0.00375215 to 0.00375215
Heightened Def Con from 0.00375509 to 0.00375509
Heightened Def Con from 0.00375716 to 0.00375716
Heightened Def Con from 0.00376008 to 0.00376008
Heightened Def Con from 0.00376218 to 0.00376218
Heightened Def Con from 0.00376507 to 0.00376507
Heightened Def Con from 0.0037672 to 0.0037672
Heightened Def Con from 0.00377005 to 0.00377005
Heightened Def Con from 0.00377223 to 0.00377223
Heightened Def Con from 0.00377502 to 0.00377502
Heightened Def Con from 0.00377727 to 0.00377727
Heightened Def Con from 0.00377999 to 0.00377999
Heightened Def Con from 0.0037823 to 0.0037823
Heightened Def Con from 0.00378496 to 0.00378496
Heightened Def Con from 0.00378734 to 0.00378734
Heightened Def Con from 0.0037899 to 0.0037899
Heightened Def Con from 0.00379239 to 0.00379239
Heightened Def Con from 0.00379486 to 0.00379487
Heightened Def Con from 0.00379744 to 0.00379744
Heightened Def Con from 0.00380249 to 0.00380249
Heightened Def Con from 0.00380477 to 0.00380477
Heightened Def Con from 0.00380754 to 0.00380754
Heightened Def Con from 0.00380973 to 0.00380973
Heightened Def Con from 0.00381258 to 0.00381259
Heightened Def Con from 0.00381469 to 0.00381469
Heightened Def Con from 0.00381763 to 0.00381763
Heightened Def Con from 0.00381965 to 0.00381965
Heightened Def Con from 0.00382267 to 0.00382267
Heightened Def Con from 0.00382462 to 0.00382462
Heightened Def Con from 0.0038277 to 0.00382771
Heightened Def Con from 0.00382959 to 0.00382959
Heightened Def Con from 0.00383273 to 0.00383273
Heightened Def Con from 0.00383457 to 0.00383457
Heightened Def Con from 0.00383775 to 0.00383776
Heightened Def Con from 0.00383955 to 0.00383955
Heightened Def Con from 0.00384277 to 0.00384277
Heightened Def Con from 0.00384454 to 0.00384454
Heightened Def Con from 0.00384778 to 0.00384778
Heightened Def Con from 0.00384954 to 0.00384954
Heightened Def Con from 0.00385278 to 0.00385278
Heightened Def Con from 0.00385454 to 0.00385454
Heightened Def Con from 0.00385778 to 0.00385778
Heightened Def Con from 0.00385956 to 0.00385956
Heightened Def Con from 0.00386277 to 0.00386277
Heightened Def Con from 0.00386458 to 0.00386458
Heightened Def Con from 0.00386775 to 0.00386775
Heightened Def Con from 0.0038696 to 0.0038696
Heightened Def Con from 0.00387273 to 0.00387273
Heightened Def Con from 0.00387464 to 0.00387464
Heightened Def Con from 0.00387769 to 0.00387769
Heightened Def Con from 0.00387967 to 0.00387968
Heightened Def Con from 0.00388266 to 0.00388266
Heightened Def Con from 0.00388472 to 0.00388472
Heightened Def Con from 0.00388762 to 0.00388762
Heightened Def Con from 0.00388976 to 0.00388976
Heightened Def Con from 0.00389258 to 0.00389258
Heightened Def Con from 0.00389481 to 0.00389481
Heightened Def Con from 0.00389754 to 0.00389754
Heightened Def Con from 0.00389986 to 0.00389986
Heightened Def Con from 0.00390249 to 0.00390249
Heightened Def Con from 0.00390491 to 0.00390491
Heightened Def Con from 0.00390745 to 0.00390745
Heightened Def Con from 0.00390997 to 0.00390997
Heightened Def Con from 0.00391241 to 0.00391241
Heightened Def Con from 0.00391501 to 0.00391501
Heightened Def Con from 0.00391738 to 0.00391738
Heightened Def Con from 0.00392005 to 0.00392005
Heightened Def Con from 0.00392234 to 0.00392234
Heightened Def Con from 0.00392509 to 0.0039251
Heightened Def Con from 0.00392731 to 0.00392731
Heightened Def Con from 0.00393012 to 0.00393012
Heightened Def Con from 0.00393228 to 0.00393228
Heightened Def Con from 0.00393515 to 0.00393515
Heightened Def Con from 0.00393726 to 0.00393726
Heightened Def Con from 0.00394017 to 0.00394017
Heightened Def Con from 0.00394225 to 0.00394225
Heightened Def Con from 0.00394519 to 0.00394519
Heightened Def Con from 0.00394724 to 0.00394724
Heightened Def Con from 0.00395225 to 0.00395225
Heightened Def Con from 0.00395519 to 0.00395519
Heightened Def Con from 0.00395726 to 0.00395726
Heightened Def Con from 0.00396018 to 0.00396018
Heightened Def Con from 0.00396227 to 0.00396227
Heightened Def Con from 0.00396516 to 0.00396516
Heightened Def Con from 0.00396729 to 0.0039673
Heightened Def Con from 0.00397014 to 0.00397014
Heightened Def Con from 0.00397233 to 0.00397233
Heightened Def Con from 0.00397511 to 0.00397512
Heightened Def Con from 0.00397737 to 0.00397737
Heightened Def Con from 0.00398008 to 0.00398008
Heightened Def Con from 0.0039824 to 0.0039824
Heightened Def Con from 0.00398745 to 0.00398745
[...]
Heightened Def Con from 0.00898499 to 0.00898499
Heightened Def Con from 0.00898758 to 0.00898758
Heightened Def Con from 0.00899003 to 0.00899003
Heightened Def Con from 0.00899254 to 0.00899254
Heightened Def Con from 0.00899508 to 0.00899508
Heightened Def Con from 0.0089975 to 0.0089975
Heightened Def Con from 0.00900013 to 0.00900013
Heightened Def Con from 0.00900245 to 0.00900246
Heightened Def Con from 0.00900518 to 0.00900518
Heightened Def Con from 0.00900741 to 0.00900741
Heightened Def Con from 0.00901023 to 0.00901023
Heightened Def Con from 0.00901237 to 0.00901237
Heightened Def Con from 0.00901527 to 0.00901527
Heightened Def Con from 0.00901733 to 0.00901733
Heightened Def Con from 0.00902031 to 0.00902031
Heightened Def Con from 0.00902535 to 0.00902535
Heightened Def Con from 0.00902726 to 0.00902726
Heightened Def Con from 0.00903039 to 0.00903039
Heightened Def Con from 0.00903224 to 0.00903224
Heightened Def Con from 0.00903541 to 0.00903541
Heightened Def Con from 0.00903722 to 0.00903722
Heightened Def Con from 0.00904043 to 0.00904043
Heightened Def Con from 0.00904221 to 0.00904221
Heightened Def Con from 0.00904545 to 0.00904545
Heightened Def Con from 0.0090472 to 0.0090472
Heightened Def Con from 0.00905045 to 0.00905046
Heightened Def Con from 0.0090522 to 0.00905221
Heightened Def Con from 0.00905545 to 0.00905546
Heightened Def Con from 0.00905721 to 0.00905722
Heightened Def Con from 0.00906045 to 0.00906045
Heightened Def Con from 0.00906223 to 0.00906223
Heightened Def Con from 0.00906543 to 0.00906543
Heightened Def Con from 0.00906726 to 0.00906726
Heightened Def Con from 0.00907041 to 0.00907041
Heightened Def Con from 0.00907229 to 0.00907229
Heightened Def Con from 0.00907538 to 0.00907538
Heightened Def Con from 0.00907732 to 0.00907732
Heightened Def Con from 0.00908035 to 0.00908035
Heightened Def Con from 0.00908236 to 0.00908236
Heightened Def Con from 0.00908531 to 0.00908531
Heightened Def Con from 0.00908741 to 0.00908741
Heightened Def Con from 0.00909027 to 0.00909027
Heightened Def Con from 0.00909245 to 0.00909246
Heightened Def Con from 0.00909523 to 0.00909523
Heightened Def Con from 0.0090975 to 0.0090975
Heightened Def Con from 0.00910019 to 0.00910019
Heightened Def Con from 0.00910256 to 0.00910256
Heightened Def Con from 0.00910514 to 0.00910515
Heightened Def Con from 0.00910761 to 0.00910761
Heightened Def Con from 0.0091101 to 0.0091101
Heightened Def Con from 0.00911265 to 0.00911265
Heightened Def Con from 0.00911506 to 0.00911506
Heightened Def Con from 0.0091177 to 0.0091177
Heightened Def Con from 0.00912002 to 0.00912002
Heightened Def Con from 0.00912274 to 0.00912274
Heightened Def Con from 0.00912499 to 0.00912499
Heightened Def Con from 0.00912778 to 0.00912778
Heightened Def Con from 0.00912996 to 0.00912996
Heightened Def Con from 0.00913281 to 0.00913281
Heightened Def Con from 0.00913494 to 0.00913494
Heightened Def Con from 0.00913783 to 0.00913783
Heightened Def Con from 0.00913992 to 0.00913992
Heightened Def Con from 0.00914284 to 0.00914285
Heightened Def Con from 0.00914491 to 0.00914491
Heightened Def Con from 0.00914785 to 0.00914786
Heightened Def Con from 0.00914991 to 0.00914991
Heightened Def Con from 0.00915286 to 0.00915286
Heightened Def Con from 0.00915492 to 0.00915492
Heightened Def Con from 0.00915785 to 0.00915785
Heightened Def Con from 0.00915993 to 0.00915993
Heightened Def Con from 0.00916284 to 0.00916284
Heightened Def Con from 0.00916495 to 0.00916495
Heightened Def Con from 0.00916782 to 0.00916782
Heightened Def Con from 0.00916997 to 0.00916997
Heightened Def Con from 0.00917279 to 0.0091728
Heightened Def Con from 0.00917501 to 0.00917501
Heightened Def Con from 0.00917777 to 0.00917777
Heightened Def Con from 0.00918005 to 0.00918005
Heightened Def Con from 0.00918273 to 0.00918273
Heightened Def Con from 0.00918509 to 0.00918509
Heightened Def Con from 0.00918769 to 0.00918769
Heightened Def Con from 0.00919014 to 0.00919014
Heightened Def Con from 0.00919265 to 0.00919265
Heightened Def Con from 0.00919519 to 0.00919519
Heightened Def Con from 0.00919761 to 0.00919761
Heightened Def Con from 0.00920024 to 0.00920024
Heightened Def Con from 0.00920256 to 0.00920256
Heightened Def Con from 0.00920529 to 0.00920529
Heightened Def Con from 0.00920752 to 0.00920753
Heightened Def Con from 0.00921034 to 0.00921034
Heightened Def Con from 0.00921248 to 0.00921248
Heightened Def Con from 0.00921538 to 0.00921538
Heightened Def Con from 0.00921744 to 0.00921744
Heightened Def Con from 0.00922043 to 0.00922043
Heightened Def Con from 0.0092224 to 0.0092224
Heightened Def Con from 0.00922546 to 0.00922546
Heightened Def Con from 0.00922737 to 0.00922737
Heightened Def Con from 0.00923049 to 0.00923049
Heightened Def Con from 0.00923235 to 0.00923235
Heightened Def Con from 0.00923552 to 0.00923552
Heightened Def Con from 0.00923733 to 0.00923733
Heightened Def Con from 0.00924054 to 0.00924054
Heightened Def Con from 0.00924555 to 0.00924555
Heightened Def Con from 0.00925056 to 0.00925056
Heightened Def Con from 0.00925231 to 0.00925231
Heightened Def Con from 0.00925556 to 0.00925556
Heightened Def Con from 0.00925732 to 0.00925732
Heightened Def Con from 0.00926055 to 0.00926055
Heightened Def Con from 0.00926234 to 0.00926234
Heightened Def Con from 0.00926553 to 0.00926553
Heightened Def Con from 0.00926736 to 0.00926736
Heightened Def Con from 0.00927051 to 0.00927051
Heightened Def Con from 0.00927239 to 0.00927239
Heightened Def Con from 0.00927548 to 0.00927548
Heightened Def Con from 0.00927743 to 0.00927743
Heightened Def Con from 0.00928045 to 0.00928045
Heightened Def Con from 0.00928247 to 0.00928247
Heightened Def Con from 0.00928541 to 0.00928541
Heightened Def Con from 0.00928751 to 0.00928751
Heightened Def Con from 0.00929037 to 0.00929037
Heightened Def Con from 0.00929256 to 0.00929256
Heightened Def Con from 0.00929533 to 0.00929533
Heightened Def Con from 0.00929761 to 0.00929761
Heightened Def Con from 0.00930029 to 0.00930029
Heightened Def Con from 0.00930266 to 0.00930266
Heightened Def Con from 0.00930524 to 0.00930524
Heightened Def Con from 0.00930771 to 0.00930771
Heightened Def Con from 0.0093102 to 0.0093102
Heightened Def Con from 0.00931276 to 0.00931276
Heightened Def Con from 0.00931516 to 0.00931516
Heightened Def Con from 0.0093178 to 0.00931781
Heightened Def Con from 0.00932012 to 0.00932012
Heightened Def Con from 0.00932284 to 0.00932285
Heightened Def Con from 0.00932509 to 0.00932509
Heightened Def Con from 0.00932788 to 0.00932788
Heightened Def Con from 0.00933006 to 0.00933006
Heightened Def Con from 0.00933291 to 0.00933291
Heightened Def Con from 0.00933504 to 0.00933504
Heightened Def Con from 0.00933793 to 0.00933793
Heightened Def Con from 0.00934002 to 0.00934003
Heightened Def Con from 0.00934295 to 0.00934295
Heightened Def Con from 0.00934502 to 0.00934502
Heightened Def Con from 0.00934796 to 0.00934796
Heightened Def Con from 0.00935001 to 0.00935002
Heightened Def Con from 0.00935296 to 0.00935296
Heightened Def Con from 0.00935502 to 0.00935502
Heightened Def Con from 0.00935795 to 0.00935796
Heightened Def Con from 0.00936003 to 0.00936004
Heightened Def Con from 0.00936294 to 0.00936294
Heightened Def Con from 0.00936506 to 0.00936506
Heightened Def Con from 0.00936793 to 0.00936793
Heightened Def Con from 0.00937008 to 0.00937008
Heightened Def Con from 0.0093729 to 0.0093729
Heightened Def Con from 0.00937512 to 0.00937512
Heightened Def Con from 0.00937787 to 0.00937787
Heightened Def Con from 0.00938015 to 0.00938015
Heightened Def Con from 0.00938283 to 0.00938283
Heightened Def Con from 0.00938519 to 0.00938519
Heightened Def Con from 0.00938779 to 0.00938779
Heightened Def Con from 0.00939024 to 0.00939024
Heightened Def Con from 0.00939276 to 0.00939276
Heightened Def Con from 0.0093953 to 0.0093953
Heightened Def Con from 0.00939771 to 0.00939771
Heightened Def Con from 0.00940035 to 0.00940035
Heightened Def Con from 0.00940267 to 0.00940267
Heightened Def Con from 0.00940539 to 0.00940539
Heightened Def Con from 0.00940762 to 0.00940762
Heightened Def Con from 0.00941044 to 0.00941044
Heightened Def Con from 0.00941258 to 0.00941259
Heightened Def Con from 0.00941549 to 0.00941549
Heightened Def Con from 0.00941754 to 0.00941754
Heightened Def Con from 0.00942053 to 0.00942053
Heightened Def Con from 0.00942251 to 0.00942251
Heightened Def Con from 0.00942557 to 0.00942557
Heightened Def Con from 0.00942748 to 0.00942749
Heightened Def Con from 0.00943061 to 0.00943061
Heightened Def Con from 0.00943246 to 0.00943246
Heightened Def Con from 0.00943563 to 0.00943563
Heightened Def Con from 0.00943744 to 0.00943744
Heightened Def Con from 0.00944065 to 0.00944065
Heightened Def Con from 0.00944242 to 0.00944242
Heightened Def Con from 0.00944566 to 0.00944566
Heightened Def Con from 0.00944742 to 0.00944742
Heightened Def Con from 0.00945067 to 0.00945067
Heightened Def Con from 0.00945242 to 0.00945242
Heightened Def Con from 0.00945567 to 0.00945567
Heightened Def Con from 0.00945743 to 0.00945743
Heightened Def Con from 0.00946066 to 0.00946066
Heightened Def Con from 0.00946245 to 0.00946245
Heightened Def Con from 0.00946564 to 0.00946564
Heightened Def Con from 0.00946747 to 0.00946747
Heightened Def Con from 0.00947062 to 0.00947062
Heightened Def Con from 0.0094725 to 0.0094725
Heightened Def Con from 0.00947559 to 0.00947559
Heightened Def Con from 0.00947753 to 0.00947753
Heightened Def Con from 0.00948056 to 0.00948056
Heightened Def Con from 0.00948258 to 0.00948258
Heightened Def Con from 0.00948552 to 0.00948552
Heightened Def Con from 0.00948762 to 0.00948762
Heightened Def Con from 0.00949048 to 0.00949048
Heightened Def Con from 0.00949267 to 0.00949267
Heightened Def Con from 0.00949543 to 0.00949543
Heightened Def Con from 0.00949772 to 0.00949772
Heightened Def Con from 0.00950039 to 0.00950039
Heightened Def Con from 0.00950277 to 0.00950277
Heightened Def Con from 0.00950534 to 0.00950534
Heightened Def Con from 0.00950782 to 0.00950782
Heightened Def Con from 0.0095103 to 0.0095103
Heightened Def Con from 0.00951286 to 0.00951286
Heightened Def Con from 0.00951526 to 0.00951526
Heightened Def Con from 0.00951791 to 0.00951791
Heightened Def Con from 0.00952022 to 0.00952022
Heightened Def Con from 0.00952295 to 0.00952296
Heightened Def Con from 0.00952519 to 0.00952519
Heightened Def Con from 0.00952798 to 0.00952798
Heightened Def Con from 0.00953016 to 0.00953016
Heightened Def Con from 0.00953302 to 0.00953302
Heightened Def Con from 0.00953515 to 0.00953515
Heightened Def Con from 0.00953804 to 0.00953804
Heightened Def Con from 0.00954013 to 0.00954013
Heightened Def Con from 0.00954305 to 0.00954305
Heightened Def Con from 0.00954512 to 0.00954512
Heightened Def Con from 0.00954806 to 0.00954806
Heightened Def Con from 0.00955012 to 0.00955012
Heightened Def Con from 0.00955307 to 0.00955307
Heightened Def Con from 0.00955513 to 0.00955513
Heightened Def Con from 0.00955806 to 0.00955806
Heightened Def Con from 0.00956014 to 0.00956014
Heightened Def Con from 0.00956305 to 0.00956305
Heightened Def Con from 0.00956516 to 0.00956516
Heightened Def Con from 0.00956803 to 0.00956803
Heightened Def Con from 0.00957019 to 0.00957019
Heightened Def Con from 0.009573 to 0.009573
Heightened Def Con from 0.00957522 to 0.00957522
Heightened Def Con from 0.00957798 to 0.00957798
Heightened Def Con from 0.00958026 to 0.00958026
Heightened Def Con from 0.00958294 to 0.00958294
Heightened Def Con from 0.00958531 to 0.00958531
Heightened Def Con from 0.0095879 to 0.0095879
Heightened Def Con from 0.00959036 to 0.00959036
Heightened Def Con from 0.00959286 to 0.00959286
Heightened Def Con from 0.00959541 to 0.00959541
Heightened Def Con from 0.00959782 to 0.00959782
Heightened Def Con from 0.00960045 to 0.00960046
Heightened Def Con from 0.00960278 to 0.00960278
Heightened Def Con from 0.0096055 to 0.0096055
Heightened Def Con from 0.00960773 to 0.00960773
Heightened Def Con from 0.00961055 to 0.00961055
Heightened Def Con from 0.00961269 to 0.00961269
Heightened Def Con from 0.0096156 to 0.0096156
Heightened Def Con from 0.00961765 to 0.00961765
Heightened Def Con from 0.00962063 to 0.00962064
Heightened Def Con from 0.00962261 to 0.00962261
Heightened Def Con from 0.00962567 to 0.00962567
Heightened Def Con from 0.00962758 to 0.00962758
Heightened Def Con from 0.00963071 to 0.00963071
Heightened Def Con from 0.00963256 to 0.00963256
Heightened Def Con from 0.00963573 to 0.00963573
Heightened Def Con from 0.00963754 to 0.00963754
Heightened Def Con from 0.00964075 to 0.00964075
Heightened Def Con from 0.00964252 to 0.00964252
Heightened Def Con from 0.00964576 to 0.00964576
Heightened Def Con from 0.00964752 to 0.00964752
Heightened Def Con from 0.00965077 to 0.00965077
Heightened Def Con from 0.00965252 to 0.00965252
Heightened Def Con from 0.00965577 to 0.00965577
Heightened Def Con from 0.00965753 to 0.00965753
Heightened Def Con from 0.00966076 to 0.00966076
Heightened Def Con from 0.00966255 to 0.00966255
Heightened Def Con from 0.00966575 to 0.00966575
Heightened Def Con from 0.00966757 to 0.00966757
Heightened Def Con from 0.00967072 to 0.00967072
Heightened Def Con from 0.00967261 to 0.00967261
Heightened Def Con from 0.0096757 to 0.0096757
Heightened Def Con from 0.00967764 to 0.00967764
Heightened Def Con from 0.00968066 to 0.00968066
Heightened Def Con from 0.00968268 to 0.00968268
Heightened Def Con from 0.00968562 to 0.00968562
Heightened Def Con from 0.00968772 to 0.00968773
Heightened Def Con from 0.00969058 to 0.00969058
Heightened Def Con from 0.00969277 to 0.00969278
Heightened Def Con from 0.00969554 to 0.00969554
Heightened Def Con from 0.00969782 to 0.00969782
Heightened Def Con from 0.00970049 to 0.00970049
Heightened Def Con from 0.00970288 to 0.00970288
Heightened Def Con from 0.00970545 to 0.00970545
Heightened Def Con from 0.00970792 to 0.00970793
Heightened Def Con from 0.00971042 to 0.00971042
Heightened Def Con from 0.00971297 to 0.00971297
Heightened Def Con from 0.00971537 to 0.00971537
Heightened Def Con from 0.00971801 to 0.00971802
Heightened Def Con from 0.00972033 to 0.00972033
Heightened Def Con from 0.00972305 to 0.00972305
Heightened Def Con from 0.0097253 to 0.0097253
Heightened Def Con from 0.00972809 to 0.00972809
Heightened Def Con from 0.00973027 to 0.00973027
Heightened Def Con from 0.00973312 to 0.00973312
Heightened Def Con from 0.00973525 to 0.00973525
Heightened Def Con from 0.00973814 to 0.00973814
Heightened Def Con from 0.00974024 to 0.00974024
Heightened Def Con from 0.00974316 to 0.00974316
Heightened Def Con from 0.00974523 to 0.00974523
Heightened Def Con from 0.00974817 to 0.00974817
Heightened Def Con from 0.00975023 to 0.00975023
Heightened Def Con from 0.00975317 to 0.00975317
Heightened Def Con from 0.00975523 to 0.00975523
Heightened Def Con from 0.00975817 to 0.00975817
Heightened Def Con from 0.00976025 to 0.00976025
Heightened Def Con from 0.00976315 to 0.00976315
Heightened Def Con from 0.00976527 to 0.00976527
Heightened Def Con from 0.00976813 to 0.00976813
Heightened Def Con from 0.00977029 to 0.0097703
Heightened Def Con from 0.00977311 to 0.00977311
Heightened Def Con from 0.00977533 to 0.00977533
Heightened Def Con from 0.00977808 to 0.00977808
Heightened Def Con from 0.00978037 to 0.00978037
Heightened Def Con from 0.00978304 to 0.00978304
Heightened Def Con from 0.00978541 to 0.00978541
Heightened Def Con from 0.009788 to 0.00978801
Heightened Def Con from 0.00979046 to 0.00979046
Heightened Def Con from 0.00979297 to 0.00979297
Heightened Def Con from 0.00979551 to 0.00979551
Heightened Def Con from 0.00980056 to 0.00980056
Heightened Def Con from 0.00980287 to 0.00980287
Heightened Def Con from 0.0098056 to 0.0098056
Heightened Def Con from 0.00980783 to 0.00980783
Heightened Def Con from 0.00981065 to 0.00981065
Heightened Def Con from 0.00981279 to 0.00981279
Heightened Def Con from 0.0098157 to 0.0098157
Heightened Def Con from 0.00981775 to 0.00981775
Heightened Def Con from 0.00982074 to 0.00982074
Heightened Def Con from 0.00982272 to 0.00982272
Heightened Def Con from 0.00982577 to 0.00982577
Heightened Def Con from 0.00982768 to 0.00982768
Heightened Def Con from 0.00983081 to 0.00983081
Heightened Def Con from 0.00983266 to 0.00983267
Heightened Def Con from 0.00983584 to 0.00983584
Heightened Def Con from 0.00983764 to 0.00983764
Heightened Def Con from 0.00984086 to 0.00984086
Heightened Def Con from 0.00984263 to 0.00984263
Heightened Def Con from 0.00984587 to 0.00984587
Heightened Def Con from 0.00984762 to 0.00984762
Heightened Def Con from 0.00985088 to 0.00985088
Heightened Def Con from 0.00985263 to 0.00985263
Heightened Def Con from 0.00985588 to 0.00985588
Heightened Def Con from 0.00985764 to 0.00985764
Heightened Def Con from 0.00986087 to 0.00986087
Heightened Def Con from 0.00986266 to 0.00986266
Heightened Def Con from 0.00986585 to 0.00986585
Heightened Def Con from 0.00986768 to 0.00986768
Heightened Def Con from 0.00987083 to 0.00987083
Heightened Def Con from 0.00987271 to 0.00987272
Heightened Def Con from 0.0098758 to 0.0098758
Heightened Def Con from 0.00987775 to 0.00987775
Heightened Def Con from 0.00988076 to 0.00988076
Heightened Def Con from 0.00988279 to 0.00988279
Heightened Def Con from 0.00988573 to 0.00988573
Heightened Def Con from 0.00988783 to 0.00988783
Heightened Def Con from 0.00989068 to 0.00989069
Heightened Def Con from 0.00989288 to 0.00989288
Heightened Def Con from 0.00989564 to 0.00989564
Heightened Def Con from 0.00989793 to 0.00989793
Heightened Def Con from 0.0099006 to 0.0099006
Heightened Def Con from 0.00990298 to 0.00990298
Heightened Def Con from 0.00990555 to 0.00990555
Heightened Def Con from 0.00990803 to 0.00990803
Heightened Def Con from 0.00991051 to 0.00991051
Heightened Def Con from 0.00991307 to 0.00991308
Heightened Def Con from 0.00991547 to 0.00991547
Heightened Def Con from 0.00991812 to 0.00991813
Heightened Def Con from 0.00992044 to 0.00992044
Heightened Def Con from 0.0099254 to 0.0099254
Heightened Def Con from 0.0099282 to 0.0099282
Heightened Def Con from 0.00993037 to 0.00993037
Heightened Def Con from 0.00993323 to 0.00993323
Heightened Def Con from 0.00993536 to 0.00993536
Heightened Def Con from 0.00993825 to 0.00993825
Heightened Def Con from 0.00994034 to 0.00994034
Heightened Def Con from 0.00994327 to 0.00994327
Heightened Def Con from 0.00994533 to 0.00994533
Heightened Def Con from 0.00994828 to 0.00994828
Heightened Def Con from 0.00995033 to 0.00995033
Heightened Def Con from 0.00995328 to 0.00995328
Heightened Def Con from 0.00995534 to 0.00995534
Heightened Def Con from 0.00995827 to 0.00995828
Heightened Def Con from 0.00996036 to 0.00996036
Heightened Def Con from 0.00996326 to 0.00996326
Heightened Def Con from 0.00996538 to 0.00996538
Heightened Def Con from 0.00996824 to 0.00996824
Heightened Def Con from 0.0099704 to 0.00997041
Heightened Def Con from 0.00997544 to 0.00997544
Heightened Def Con from 0.00997819 to 0.00997819
Heightened Def Con from 0.00998047 to 0.00998047
Heightened Def Con from 0.00998315 to 0.00998315
Heightened Def Con from 0.00998551 to 0.00998551
Heightened Def Con from 0.00998811 to 0.00998811
Heightened Def Con from 0.00999057 to 0.00999057
Heightened Def Con from 0.00999307 to 0.00999307
Heightened Def Con from 0.00999561 to 0.00999561
Heightened Def Con from 0.00999802 to 0.00999802

Date: Sun Oct 06 16:14:30 2019
Total elapsed time: 142.957 seconds.

tnom = 27
temp = 27
method = modified trap
totiter = 6332553
traniter = 6319464
tranpoints = 1612390
accept = 1152221
rejected = 464067
matrix size = 100
fillins = 120
solver = Normal
Thread vector: 23.3/18.5[3] 5.7/4.0[3] 2.6/2.1[3] 0.4/2.4[1]  2592/500
Matrix Compiler1: 12.55 KB object code size  2.4/1.3/[0.6]
Matrix Compiler2: 11.14 KB object code size  1.5/3.9/[0.6]

