Stray ".ends" card: .ends
Stray ".ends" card: .ends
Circuit: * C:\Users\gusta\Documents\GitHub\EEL7303\Laboratorios\Projeto - Amplificador Classe D em Ponte H\Simulação\V1.1.0\AmplificadorClasseD-V1101.asc

WARNING: Node N013 is floating.
WARNING: Node V_OUT1 is floating.

WARNING: Less than two connections to node N013.  This node is used by M10.
WARNING: Less than two connections to node V_OUT1.  This node is used by C2.
Warning: Pd = 0 is less than W.
Warning: Ps = 0 is less than W.
Warning: Pd = 0 is less than W.
Warning: Ps = 0 is less than W.
Direct Newton iteration failed to find .op point.  (Use ".option noopiter" to skip.)
Starting Gmin stepping
Gmin = 10
Gmin = 1.07374
vernier = 0.5
vernier = 0.25
vernier = 0.125
vernier = 0.0625
Gmin = 1.08884
vernier = 0.03125
vernier = 0.015625
Gmin = 1.03122
vernier = 0.0078125
vernier = 0.0104167
vernier = 0.00520833
Gmin = 1.01988
vernier = 0.00260417
vernier = 0.00347222
Gmin = 1.01305
vernier = 0.00173611
vernier = 0.00231481
vernier = 0.00115741
Gmin = 1.01085
vernier = 0.00154321
vernier = 0.000771604
Gmin = 1.00871
vernier = 0.00102881
vernier = 0.000514403
Gmin = 1.00715
vernier = 0.00068587
vernier = 0.000514403
Gmin = 1.0059
vernier = 0.00068587
vernier = 0.000514402
Gmin = 0
Gmin stepping failed

Starting source stepping with srcstepmethod=0
Source Step = 3.0303%
Source Step = 12.1271%
Source Step = 12.1567%
Source Step = 12.1863%
Source Step = 12.2159%
Source Step = 12.2455%
vernier = 0.00146484
Source Step = 12.2766%
Source Step = 12.321%
Source Step = 12.3654%
Source Step = 12.4097%
Source Step = 12.4541%
Source Step = 12.4985%
vernier = 0.00219727
Source Step = 12.5651%
Source Step = 12.6317%
Source Step = 12.6983%
Source Step = 12.7649%
Source Step = 12.8314%
vernier = 0.0032959
Source Step = 12.928%
Source Step = 13.0279%
Source Step = 13.1277%
Source Step = 13.2276%
Source Step = 13.3275%
vernier = 0.00494385
Source Step = 13.4673%
Source Step = 13.6171%
Source Step = 13.7669%
Source Step = 13.9168%
Source Step = 14.0666%
vernier = 0.00741577
Source Step = 14.2688%
Source Step = 14.4935%
Source Step = 14.7183%
Source Step = 14.943%
Source Step = 15.1677%
vernier = 0.0111237
Source Step = 15.4598%
Source Step = 15.7969%
Source Step = 16.134%
Source Step = 16.4711%
Source Step = 16.8082%
vernier = 0.0166855
Source Step = 17.2295%
Source Step = 17.7351%
Source Step = 18.2407%
Source Step = 18.7464%
Source Step = 19.252%
vernier = 0.0250282
Source Step = 19.8587%
Source Step = 20.6172%
Source Step = 21.3756%
Source Step = 22.134%
Source Step = 22.8925%
vernier = 0.0375423
Source Step = 23.7647%
Source Step = 23.9709%
Source Step = 24.042%
Source Step = 24.1131%
Source Step = 24.1842%
Source Step = 24.2553%
vernier = 0.00351959
Source Step = 24.3335%
Source Step = 24.4401%
Source Step = 24.5468%
Source Step = 24.6534%
Source Step = 24.7601%
vernier = 0.00527939
Source Step = 24.8721%
Source Step = 25.0321%
Source Step = 25.192%
Source Step = 25.352%
Source Step = 25.388%
Source Step = 25.428%
Source Step = 25.468%
Source Step = 25.508%
Source Step = 25.548%
vernier = 0.00197977
Source Step = 25.596%
Source Step = 25.656%
Source Step = 25.716%
Source Step = 25.776%
Source Step = 25.836%
vernier = 0.00296966
Source Step = 25.905%
Source Step = 25.995%
Source Step = 26.0849%
Source Step = 26.1749%
Source Step = 26.2649%
vernier = 0.00445449
Source Step = 26.3639%
vernier = 0.00111362
Source Step = 26.3842%
Source Step = 26.4179%
Source Step = 26.4517%
Source Step = 26.4854%
Source Step = 26.5191%
vernier = 0.00167043
Source Step = 26.563%
Source Step = 26.6136%
Source Step = 26.6643%
Source Step = 26.7149%
Source Step = 26.7655%
vernier = 0.00250565
Source Step = 26.8288%
Source Step = 26.9047%
Source Step = 26.9806%
Source Step = 27.0566%
Source Step = 27.1325%
vernier = 0.00375847
Source Step = 27.2236%
Source Step = 27.3375%
Source Step = 27.4514%
Source Step = 27.5653%
Source Step = 27.6165%
Source Step = 27.645%
Source Step = 27.6735%
Source Step = 27.7019%
Source Step = 27.7304%
vernier = 0.00140943
Source Step = 27.7617%
Source Step = 27.8044%
Source Step = 27.8472%
Source Step = 27.8899%
Source Step = 27.9326%
vernier = 0.00211414
Source Step = 27.9774%
Source Step = 28.0415%
Source Step = 28.1056%
Source Step = 28.1696%
Source Step = 28.2337%
Source Step = 28.2977%
vernier = 0.00317121
Source Step = 28.3938%
Source Step = 28.4899%
Source Step = 28.586%
Source Step = 28.6821%
Source Step = 28.7782%
vernier = 0.00475682
Source Step = 28.9176%
Source Step = 29.0617%
Source Step = 29.2059%
Source Step = 29.35%
Source Step = 29.4942%
vernier = 0.00713523
Source Step = 29.696%
Source Step = 29.9122%
Source Step = 30.1284%
Source Step = 30.3446%
Source Step = 30.5608%
vernier = 0.0107028
Source Step = 30.8527%
Source Step = 31.1771%
Source Step = 31.323%
Source Step = 31.4041%
Source Step = 31.4852%
Source Step = 31.5663%
Source Step = 31.6473%
vernier = 0.00401357
Source Step = 31.7365%
Source Step = 31.8582%
Source Step = 31.9798%
Source Step = 32.1014%
Source Step = 32.223%
vernier = 0.00602035
Source Step = 32.3507%
Source Step = 32.5332%
Source Step = 32.7156%
Source Step = 32.898%
Source Step = 33.0805%
Source Step = 33.2629%
vernier = 0.00903052
Source Step = 33.5366%
Source Step = 33.8102%
Source Step = 34.0839%
Source Step = 34.3575%
Source Step = 34.6312%
vernier = 0.0135458
Source Step = 35.028%
Source Step = 35.4384%
Source Step = 35.8489%
Source Step = 36.2594%
Source Step = 36.6699%
vernier = 0.0203187
Source Step = 37.2445%
Source Step = 37.8603%
Source Step = 38.476%
Source Step = 39.0917%
Source Step = 39.7074%
vernier = 0.030478
Source Step = 40.5386%
Source Step = 41.4622%
Source Step = 42.3858%
Source Step = 43.3094%
Source Step = 44.2329%
vernier = 0.045717
Source Step = 45.4336%
Source Step = 46.8189%
Source Step = 48.2043%
Source Step = 49.5897%
Source Step = 50.975%
vernier = 0.0685755
Source Step = 52.7067%
Source Step = 54.7848%
Source Step = 56.8628%
Source Step = 58.9409%
Source Step = 61.0189%
Source stepping aborted.
Starting source stepping with srcstepmethod=1
Source Step = 3.0303%
Source Step = 33.3333%
Source Step = 63.6364%
Source Step = 93.9394%
Source Step = 99.1894%
vernier = 0.015625
Source Step = 99.0237%
Source Step = 99.0533%
Source Step = 99.0829%
Source Step = 99.1125%
Source Step = 99.142%
Source Step = 99.1716%
Source Step = 99.2012%
Source Step = 99.2308%
Source Step = 99.2604%
Source Step = 99.29%
Source Step = 99.3196%
Source Step = 99.3492%
Source Step = 99.3788%
Source Step = 99.4084%
Source Step = 99.438%
Source Step = 99.4676%
Source Step = 99.4972%
Source Step = 99.5268%
Source Step = 99.5563%
Source Step = 99.5859%
Source Step = 99.6155%
Source Step = 99.6451%
Source Step = 99.6747%
Source Step = 99.7043%
Source Step = 99.7339%
Source Step = 99.7635%
Source Step = 99.7931%
Source Step = 99.8227%
Source Step = 99.8523%
Source Step = 99.8819%
Source Step = 99.9115%
Source stepping aborted.
Pseudo Transient failed in finding the operating point at 108.558 µs.
Trouble finding operating point....skipping operating point for Transient analysis.
Changing Tseed to 4.88281e-009
Changing Tseed to 4.88281e-011
Changing Tseed to 4.88281e-008
Changing Tseed to 4.88281e-012
Changing Tseed to 4.88281e-007
Changing Tseed to 4.88281e-013
Changing Tseed to 4.88281e-006
Changing Tseed to 4.88281e-014
Heightened Def Con from 3.5027e-007 to 3.5077e-007
Heightened Def Con from 2.08418e-006 to 2.09018e-006
Heightened Def Con from 3.6492e-006 to 3.6497e-006
Heightened Def Con from 5.08489e-006 to 5.09089e-006
Heightened Def Con from 6.70545e-006 to 6.70595e-006
Heightened Def Con from 8.08521e-006 to 8.08571e-006
Heightened Def Con from 9.76149e-006 to 9.76199e-006
Heightened Def Con from 1.10879e-005 to 1.10884e-005
Heightened Def Con from 1.28166e-005 to 1.28171e-005
Heightened Def Con from 1.40907e-005 to 1.40912e-005
Heightened Def Con from 1.70942e-005 to 1.70947e-005
Heightened Def Con from 1.89224e-005 to 1.89229e-005
Heightened Def Con from 2.0099e-005 to 2.00995e-005
Heightened Def Con from 2.1973e-005 to 2.19735e-005
Heightened Def Con from 2.31055e-005 to 2.3106e-005
Heightened Def Con from 2.50211e-005 to 2.50216e-005
Heightened Def Con from 2.61128e-005 to 2.61133e-005
Heightened Def Con from 2.80683e-005 to 2.80688e-005
Heightened Def Con from 2.91234e-005 to 2.91239e-005
Heightened Def Con from 3.11144e-005 to 3.11149e-005
Heightened Def Con from 3.21366e-005 to 3.21371e-005
Heightened Def Con from 3.4157e-005 to 3.41575e-005
Heightened Def Con from 3.51511e-005 to 3.51516e-005
Heightened Def Con from 3.71987e-005 to 3.71992e-005
Heightened Def Con from 3.81696e-005 to 3.81766e-005
Heightened Def Con from 4.02379e-005 to 4.02384e-005
Heightened Def Con from 4.119e-005 to 4.1197e-005
Heightened Def Con from 4.32745e-005 to 4.3275e-005
Heightened Def Con from 4.42139e-005 to 4.42144e-005
Heightened Def Con from 4.63098e-005 to 4.63103e-005
Heightened Def Con from 4.72396e-005 to 4.72401e-005
Heightened Def Con from 5.02681e-005 to 5.02686e-005
Heightened Def Con from 5.23689e-005 to 5.23694e-005
Heightened Def Con from 5.32984e-005 to 5.32989e-005
Heightened Def Con from 5.53949e-005 to 5.53954e-005
Heightened Def Con from 5.63329e-005 to 5.63334e-005
Heightened Def Con from 5.8419e-005 to 5.84195e-005
Heightened Def Con from 5.93694e-005 to 5.93699e-005
Heightened Def Con from 6.14395e-005 to 6.144e-005
Heightened Def Con from 6.24078e-005 to 6.24083e-005
Heightened Def Con from 6.44579e-005 to 6.44584e-005
Heightened Def Con from 6.54492e-005 to 6.54497e-005
Heightened Def Con from 6.74749e-005 to 6.74754e-005
Heightened Def Con from 6.84927e-005 to 6.84932e-005
Heightened Def Con from 7.04879e-005 to 7.04884e-005
Heightened Def Con from 7.15378e-005 to 7.15383e-005
Heightened Def Con from 7.34986e-005 to 7.34991e-005
Heightened Def Con from 7.45856e-005 to 7.45861e-005
Heightened Def Con from 7.65077e-005 to 7.65082e-005
Heightened Def Con from 7.76342e-005 to 7.76347e-005
Heightened Def Con from 7.95133e-005 to 7.95138e-005
Heightened Def Con from 8.06844e-005 to 8.06849e-005
Heightened Def Con from 8.25192e-005 to 8.25197e-005
Heightened Def Con from 8.37371e-005 to 8.37376e-005
Heightened Def Con from 8.55227e-005 to 8.55232e-005
Heightened Def Con from 8.67907e-005 to 8.67912e-005
Heightened Def Con from 8.85261e-005 to 8.85266e-005
Heightened Def Con from 8.9846e-005 to 8.98465e-005
Heightened Def Con from 9.15288e-005 to 9.15293e-005
Heightened Def Con from 9.29008e-005 to 9.29013e-005
Heightened Def Con from 9.45291e-005 to 9.45296e-005
Heightened Def Con from 9.5957e-005 to 9.59575e-005
Heightened Def Con from 9.75297e-005 to 9.75302e-005
Heightened Def Con from 9.90125e-005 to 9.9013e-005
Heightened Def Con from 0.000100529 to 0.00010053
Heightened Def Con from 0.000102069 to 0.00010207
Heightened Def Con from 0.00010353 to 0.000103531
Heightened Def Con from 0.000105126 to 0.000105126
Heightened Def Con from 0.000106531 to 0.000106531
Heightened Def Con from 0.000108181 to 0.000108182
Heightened Def Con from 0.000109532 to 0.000109533
Heightened Def Con from 0.000111236 to 0.000111237
Heightened Def Con from 0.000112532 to 0.000112533
Heightened Def Con from 0.000114289 to 0.00011429
Heightened Def Con from 0.000115536 to 0.000115536
Heightened Def Con from 0.000117342 to 0.000117343
Heightened Def Con from 0.00011854 to 0.000118541
Heightened Def Con from 0.000120395 to 0.000120395
Heightened Def Con from 0.000121546 to 0.000121547
Heightened Def Con from 0.000123445 to 0.000123446
Heightened Def Con from 0.000124553 to 0.000124554
Heightened Def Con from 0.000126493 to 0.000126494
Heightened Def Con from 0.000127564 to 0.000127564
Heightened Def Con from 0.000129539 to 0.000129539
Heightened Def Con from 0.000130574 to 0.000130574
Heightened Def Con from 0.000132583 to 0.000132583
Heightened Def Con from 0.000133586 to 0.000133587
Heightened Def Con from 0.000135624 to 0.000135625
Heightened Def Con from 0.000136602 to 0.000136602
Heightened Def Con from 0.000138664 to 0.000138665
Heightened Def Con from 0.00013962 to 0.000139621
Heightened Def Con from 0.0001417 to 0.0001417
Heightened Def Con from 0.00014264 to 0.000142641
Heightened Def Con from 0.000144734 to 0.000144735
Heightened Def Con from 0.000145663 to 0.000145664
Heightened Def Con from 0.000147765 to 0.000147766
Heightened Def Con from 0.000148689 to 0.000148689
Heightened Def Con from 0.000150795 to 0.000150795
Heightened Def Con from 0.000151718 to 0.000151719
Heightened Def Con from 0.000153821 to 0.000153822
Heightened Def Con from 0.000154749 to 0.000154749
Heightened Def Con from 0.000156845 to 0.000156845
Heightened Def Con from 0.000157783 to 0.000157783
Heightened Def Con from 0.000159866 to 0.000159866
Heightened Def Con from 0.000160819 to 0.000160819
Heightened Def Con from 0.000162884 to 0.000162884
Heightened Def Con from 0.000163858 to 0.000163858
Heightened Def Con from 0.0001659 to 0.0001659
Heightened Def Con from 0.000166899 to 0.000166899
Heightened Def Con from 0.000168915 to 0.000168921
Heightened Def Con from 0.000169943 to 0.000169944
Heightened Def Con from 0.000171926 to 0.000171926
Heightened Def Con from 0.000172989 to 0.00017299
Heightened Def Con from 0.000174935 to 0.000174935
Heightened Def Con from 0.000176036 to 0.000176037
Heightened Def Con from 0.000177942 to 0.000177943
Heightened Def Con from 0.000179086 to 0.000179087
Heightened Def Con from 0.000180949 to 0.000180949
Heightened Def Con from 0.000182138 to 0.000182139
Heightened Def Con from 0.000183952 to 0.000183952
Heightened Def Con from 0.000185189 to 0.00018519
Heightened Def Con from 0.000186956 to 0.000186956
Heightened Def Con from 0.000188244 to 0.000188244
Heightened Def Con from 0.000189958 to 0.000189959
Heightened Def Con from 0.000191297 to 0.000191297
Heightened Def Con from 0.000192957 to 0.000192957
Heightened Def Con from 0.000194352 to 0.000194353
Heightened Def Con from 0.000195956 to 0.000195956
Heightened Def Con from 0.000197406 to 0.000197407
Heightened Def Con from 0.000198956 to 0.000198956
Heightened Def Con from 0.000200463 to 0.000200464
Heightened Def Con from 0.000201957 to 0.000201957
Heightened Def Con from 0.000203519 to 0.00020352
Heightened Def Con from 0.000204957 to 0.000204957
Heightened Def Con from 0.000206574 to 0.000206575
Heightened Def Con from 0.000207958 to 0.000207959
Heightened Def Con from 0.000209631 to 0.000209631
Heightened Def Con from 0.000210959 to 0.000210959
Heightened Def Con from 0.000212685 to 0.000212685
Heightened Def Con from 0.000213962 to 0.000213962
Heightened Def Con from 0.000215739 to 0.00021574
Heightened Def Con from 0.000216964 to 0.000216965
Heightened Def Con from 0.00021879 to 0.000218791
Heightened Def Con from 0.000219969 to 0.00021997
Heightened Def Con from 0.000221842 to 0.000221842
Heightened Def Con from 0.000222976 to 0.000222977
Heightened Def Con from 0.000224891 to 0.000224891
Heightened Def Con from 0.000225984 to 0.000225985
Heightened Def Con from 0.000227938 to 0.000227939
Heightened Def Con from 0.000228995 to 0.000229001
Heightened Def Con from 0.000230984 to 0.000230984
Heightened Def Con from 0.000232007 to 0.000232007
Heightened Def Con from 0.000234027 to 0.000234027
Heightened Def Con from 0.000235023 to 0.000235023
Heightened Def Con from 0.000237069 to 0.000237069
Heightened Def Con from 0.00023804 to 0.000238041
Heightened Def Con from 0.000240108 to 0.000240109
Heightened Def Con from 0.000241061 to 0.000241062
Heightened Def Con from 0.000243145 to 0.000243146
Heightened Def Con from 0.000244084 to 0.000244085
Heightened Def Con from 0.00024618 to 0.00024618
Heightened Def Con from 0.000247111 to 0.000247111
Heightened Def Con from 0.000249211 to 0.000249212
Heightened Def Con from 0.000250139 to 0.000250139
Heightened Def Con from 0.00025224 to 0.000252241
Heightened Def Con from 0.00025317 to 0.000253171
Heightened Def Con from 0.000255265 to 0.000255266
Heightened Def Con from 0.000256203 to 0.000256204
Heightened Def Con from 0.000258289 to 0.00025829
Heightened Def Con from 0.000259239 to 0.00025924
Heightened Def Con from 0.000261312 to 0.000261312
Heightened Def Con from 0.000262279 to 0.000262286
Heightened Def Con from 0.00026433 to 0.000264331
Heightened Def Con from 0.000265321 to 0.000265321
Heightened Def Con from 0.000267346 to 0.000267347
Heightened Def Con from 0.000268363 to 0.000268363
Heightened Def Con from 0.000270359 to 0.00027036
Heightened Def Con from 0.000271407 to 0.000271413
Heightened Def Con from 0.000273369 to 0.00027337
Heightened Def Con from 0.000274454 to 0.000274455
Heightened Def Con from 0.000276378 to 0.000276379
Heightened Def Con from 0.000277503 to 0.000277503
Heightened Def Con from 0.000279385 to 0.000279385
Heightened Def Con from 0.000280553 to 0.000280554
Heightened Def Con from 0.000282389 to 0.00028239
Heightened Def Con from 0.000283605 to 0.000283606
Heightened Def Con from 0.000285394 to 0.000285394
Heightened Def Con from 0.000286658 to 0.000286659
Heightened Def Con from 0.000289714 to 0.000289714
Heightened Def Con from 0.000291399 to 0.0002914
Heightened Def Con from 0.000292768 to 0.000292774
Heightened Def Con from 0.0002944 to 0.0002944
Heightened Def Con from 0.000295825 to 0.000295826
Heightened Def Con from 0.000297401 to 0.000297401
Heightened Def Con from 0.000298882 to 0.000298883
Heightened Def Con from 0.000300401 to 0.000300402
Heightened Def Con from 0.000301939 to 0.00030194
Heightened Def Con from 0.000303402 to 0.000303403
Heightened Def Con from 0.000304995 to 0.000305001
Heightened Def Con from 0.000306403 to 0.000306404
Heightened Def Con from 0.000308052 to 0.000308053
Heightened Def Con from 0.000309405 to 0.000309405
Heightened Def Con from 0.000311107 to 0.000311113
Heightened Def Con from 0.000312406 to 0.000312407
Heightened Def Con from 0.000314162 to 0.000314168
Heightened Def Con from 0.00031541 to 0.00031541
Heightened Def Con from 0.000317214 to 0.000317215
Heightened Def Con from 0.000318413 to 0.000318414
Heightened Def Con from 0.000320265 to 0.000320266
Heightened Def Con from 0.000321419 to 0.00032142
Heightened Def Con from 0.000323316 to 0.000323316
Heightened Def Con from 0.000324426 to 0.000324427
Heightened Def Con from 0.000326364 to 0.000326364
Heightened Def Con from 0.000327435 to 0.000327436
Heightened Def Con from 0.00032941 to 0.000329411
Heightened Def Con from 0.000330447 to 0.000330447
Heightened Def Con from 0.000332455 to 0.000332456
Heightened Def Con from 0.000333461 to 0.000333461
Heightened Def Con from 0.000335497 to 0.000335497
Heightened Def Con from 0.000336475 to 0.000336476
Heightened Def Con from 0.000338536 to 0.000338536
Heightened Def Con from 0.000339493 to 0.000339494
Heightened Def Con from 0.000341573 to 0.000341573
Heightened Def Con from 0.000342513 to 0.000342514
Heightened Def Con from 0.000344607 to 0.000344608
Heightened Def Con from 0.000345536 to 0.000345537
Heightened Def Con from 0.000347638 to 0.000347638
Heightened Def Con from 0.000348561 to 0.000348561
Heightened Def Con from 0.000350666 to 0.000350667
Heightened Def Con from 0.00035159 to 0.00035159
Heightened Def Con from 0.000353694 to 0.000353694
Heightened Def Con from 0.000354622 to 0.000354622
Heightened Def Con from 0.000356717 to 0.000356718
Heightened Def Con from 0.000357655 to 0.000357655
Heightened Def Con from 0.000359738 to 0.000359739
Heightened Def Con from 0.000360691 to 0.000360692
Heightened Def Con from 0.000362758 to 0.000362758
Heightened Def Con from 0.000363731 to 0.000363731
Heightened Def Con from 0.000365774 to 0.000365775
Heightened Def Con from 0.000366772 to 0.000366772
Heightened Def Con from 0.000368787 to 0.000368787
Heightened Def Con from 0.000369815 to 0.000369815
Heightened Def Con from 0.000371798 to 0.000371798
Heightened Def Con from 0.000372859 to 0.000372859
Heightened Def Con from 0.000374807 to 0.000374807
Heightened Def Con from 0.000375906 to 0.000375907
Heightened Def Con from 0.000377813 to 0.000377814
Heightened Def Con from 0.000378955 to 0.000378956
Heightened Def Con from 0.000380819 to 0.000380819
Heightened Def Con from 0.000382006 to 0.000382006
Heightened Def Con from 0.000383822 to 0.000383823
Heightened Def Con from 0.000385058 to 0.000385058
Heightened Def Con from 0.000386826 to 0.000386827
Heightened Def Con from 0.000388112 to 0.000388113
Heightened Def Con from 0.00038983 to 0.00038983
Heightened Def Con from 0.000391167 to 0.000391168
Heightened Def Con from 0.00039283 to 0.000392831
Heightened Def Con from 0.000394223 to 0.000394224
Heightened Def Con from 0.000395831 to 0.000395832
Heightened Def Con from 0.00039728 to 0.000397281
Heightened Def Con from 0.000398832 to 0.000398832
Heightened Def Con from 0.000400336 to 0.000400336
Heightened Def Con from 0.000401832 to 0.000401833
Heightened Def Con from 0.000403392 to 0.000403393
Heightened Def Con from 0.000404832 to 0.000404833
Heightened Def Con from 0.000406449 to 0.000406449
Heightened Def Con from 0.000407834 to 0.000407834
Heightened Def Con from 0.000409504 to 0.000409504
Heightened Def Con from 0.000410834 to 0.00041084
Heightened Def Con from 0.000412558 to 0.000412558
Heightened Def Con from 0.000413836 to 0.000413837
Heightened Def Con from 0.000415611 to 0.000415612
Heightened Def Con from 0.000416839 to 0.000416839
Heightened Def Con from 0.000418663 to 0.000418664
Heightened Def Con from 0.000419844 to 0.000419845
Heightened Def Con from 0.000421714 to 0.000421714
Heightened Def Con from 0.00042285 to 0.000422851
Heightened Def Con from 0.000424764 to 0.000424764
Heightened Def Con from 0.000425858 to 0.000425859
Heightened Def Con from 0.00042781 to 0.000427811
Heightened Def Con from 0.000428868 to 0.000428868
Heightened Def Con from 0.000430856 to 0.000430856
Heightened Def Con from 0.00043188 to 0.000431886
Heightened Def Con from 0.000433899 to 0.0004339
Heightened Def Con from 0.000434896 to 0.000434896
Heightened Def Con from 0.000436941 to 0.000436942
Heightened Def Con from 0.000437913 to 0.000437914
Heightened Def Con from 0.00043998 to 0.000439981
Heightened Def Con from 0.000440934 to 0.000440935
Heightened Def Con from 0.000443017 to 0.000443018
Heightened Def Con from 0.000443957 to 0.000443958
Heightened Def Con from 0.000446052 to 0.000446053
Heightened Def Con from 0.000446983 to 0.000446984
Heightened Def Con from 0.000449084 to 0.000449085
Heightened Def Con from 0.000450012 to 0.000450019
Heightened Def Con from 0.000452113 to 0.000452113
Heightened Def Con from 0.000453042 to 0.000453042
Heightened Def Con from 0.000455138 to 0.000455139
Heightened Def Con from 0.000456075 to 0.000456076
Heightened Def Con from 0.000458162 to 0.000458163
Heightened Def Con from 0.000459112 to 0.000459112
Heightened Def Con from 0.000461183 to 0.000461183
Heightened Def Con from 0.00046215 to 0.000462151
Heightened Def Con from 0.000464201 to 0.000464202
Heightened Def Con from 0.000465191 to 0.000465191
Heightened Def Con from 0.000467218 to 0.000467219
Heightened Def Con from 0.000468233 to 0.000468234
Heightened Def Con from 0.000470231 to 0.000470232
Heightened Def Con from 0.000471279 to 0.00047128
Heightened Def Con from 0.000473242 to 0.000473242
Heightened Def Con from 0.000474325 to 0.000474325
Heightened Def Con from 0.000476251 to 0.000476251
Heightened Def Con from 0.000477373 to 0.000477374
Heightened Def Con from 0.000479257 to 0.000479258
Heightened Def Con from 0.000480424 to 0.000480424
Heightened Def Con from 0.000482263 to 0.000482263
Heightened Def Con from 0.000483476 to 0.000483477
Heightened Def Con from 0.000485266 to 0.000485267
Heightened Def Con from 0.00048653 to 0.000486536
Heightened Def Con from 0.00048827 to 0.000488271
Heightened Def Con from 0.000489584 to 0.000489585
Heightened Def Con from 0.000491271 to 0.000491272
Heightened Def Con from 0.000492639 to 0.00049264
Heightened Def Con from 0.000494273 to 0.000494273
Heightened Def Con from 0.000495695 to 0.000495696
Heightened Def Con from 0.000497273 to 0.000497273
Heightened Def Con from 0.000498752 to 0.000498752
Heightened Def Con from 0.000500273 to 0.000500273
Heightened Def Con from 0.000501809 to 0.000501809
Heightened Def Con from 0.000503273 to 0.000503274
Heightened Def Con from 0.000504865 to 0.000504866
Heightened Def Con from 0.000506276 to 0.000506276
Heightened Def Con from 0.000507921 to 0.000507921
Heightened Def Con from 0.000509277 to 0.000509277
Heightened Def Con from 0.000510976 to 0.000510977
Heightened Def Con from 0.000512277 to 0.000512277
Heightened Def Con from 0.00051403 to 0.000514031
Heightened Def Con from 0.000515281 to 0.000515281
Heightened Def Con from 0.000517082 to 0.000517083
Heightened Def Con from 0.000518284 to 0.000518285
Heightened Def Con from 0.000520134 to 0.000520135
Heightened Def Con from 0.000521289 to 0.00052129
Heightened Def Con from 0.000523184 to 0.000523184
Heightened Def Con from 0.000524297 to 0.000524298
Heightened Def Con from 0.000527306 to 0.000527306
Heightened Def Con from 0.00052928 to 0.00052928
Heightened Def Con from 0.000530317 to 0.000530317
Heightened Def Con from 0.000532323 to 0.000532324
Heightened Def Con from 0.000533329 to 0.00053333
Heightened Def Con from 0.000535365 to 0.000535365
Heightened Def Con from 0.000536345 to 0.000536346
Heightened Def Con from 0.000538404 to 0.000538405
Heightened Def Con from 0.000539363 to 0.000539364
Heightened Def Con from 0.000541442 to 0.000541442
Heightened Def Con from 0.000542383 to 0.000542384
Heightened Def Con from 0.000544477 to 0.000544477
Heightened Def Con from 0.000545407 to 0.000545408
Heightened Def Con from 0.000547509 to 0.000547515
Heightened Def Con from 0.000548433 to 0.000548434
Heightened Def Con from 0.000550538 to 0.000550538
Heightened Def Con from 0.00055146 to 0.00055146
Heightened Def Con from 0.000553564 to 0.000553565
Heightened Def Con from 0.000554492 to 0.000554493
Heightened Def Con from 0.000556588 to 0.000556588
Heightened Def Con from 0.000557526 to 0.000557526
Heightened Def Con from 0.00055961 to 0.00055961
Heightened Def Con from 0.000560562 to 0.000560562
Heightened Def Con from 0.000562628 to 0.000562629
Heightened Def Con from 0.0005636 to 0.0005636
Heightened Def Con from 0.000565644 to 0.000565645
Heightened Def Con from 0.000566641 to 0.000566642
Heightened Def Con from 0.000568659 to 0.000568659
Heightened Def Con from 0.000569685 to 0.000569686
Heightened Def Con from 0.000571671 to 0.000571671
Heightened Def Con from 0.000572731 to 0.000572732
Heightened Def Con from 0.00057468 to 0.000574681
Heightened Def Con from 0.000575778 to 0.000575778
Heightened Def Con from 0.000577687 to 0.000577688
Heightened Def Con from 0.000578827 to 0.000578828
Heightened Def Con from 0.000580693 to 0.000580693
Heightened Def Con from 0.000581877 to 0.000581878
Heightened Def Con from 0.000583698 to 0.000583698
Heightened Def Con from 0.00058493 to 0.000584931
Heightened Def Con from 0.000586701 to 0.000586701
Heightened Def Con from 0.000587984 to 0.000587984
Heightened Def Con from 0.000589702 to 0.000589702
Heightened Def Con from 0.000591038 to 0.000591039
Heightened Def Con from 0.000592703 to 0.000592704
Heightened Def Con from 0.000594094 to 0.000594094
Heightened Def Con from 0.000595702 to 0.000595702
Heightened Def Con from 0.000597148 to 0.000597148
Heightened Def Con from 0.000600203 to 0.000600204
Heightened Def Con from 0.000601702 to 0.000601703
Heightened Def Con from 0.00060326 to 0.000603261
Heightened Def Con from 0.000604703 to 0.000604709
Heightened Def Con from 0.000606317 to 0.000606318
Heightened Def Con from 0.000607703 to 0.000607704
Heightened Def Con from 0.000609372 to 0.000609372
Heightened Def Con from 0.000612427 to 0.000612427
Heightened Def Con from 0.000613708 to 0.000613708
Heightened Def Con from 0.00061548 to 0.00061548
Heightened Def Con from 0.00061671 to 0.000616716
Heightened Def Con from 0.000618532 to 0.000618533
Heightened Def Con from 0.000619716 to 0.000619722
Heightened Def Con from 0.000621585 to 0.000621585
Heightened Def Con from 0.000622722 to 0.000622723
Heightened Def Con from 0.000624634 to 0.000624635
Heightened Def Con from 0.00062573 to 0.000625731
Heightened Def Con from 0.000627682 to 0.000627682
Heightened Def Con from 0.000628741 to 0.000628747
Heightened Def Con from 0.000630727 to 0.000630727
Heightened Def Con from 0.000631752 to 0.000631753
Heightened Def Con from 0.00063377 to 0.000633771
Heightened Def Con from 0.000634768 to 0.000634769
Heightened Def Con from 0.000636812 to 0.000636812
Heightened Def Con from 0.000637786 to 0.000637787
Heightened Def Con from 0.000639852 to 0.000639852
Heightened Def Con from 0.000640806 to 0.000640807
Heightened Def Con from 0.00064289 to 0.00064289
Heightened Def Con from 0.00064383 to 0.000643831
Heightened Def Con from 0.000645925 to 0.000645925
Heightened Def Con from 0.000646856 to 0.000646857
Heightened Def Con from 0.000648957 to 0.000648957
Heightened Def Con from 0.000649885 to 0.000649885
Heightened Def Con from 0.000651986 to 0.000651987
Heightened Def Con from 0.000652915 to 0.000652916
Heightened Def Con from 0.000655013 to 0.000655013
Heightened Def Con from 0.000655949 to 0.000655949
Heightened Def Con from 0.000658037 to 0.000658037
Heightened Def Con from 0.000658986 to 0.000658986
Heightened Def Con from 0.000661059 to 0.00066106
Heightened Def Con from 0.000662024 to 0.000662025
Heightened Def Con from 0.000664077 to 0.000664078
Heightened Def Con from 0.000665065 to 0.000665066
Heightened Def Con from 0.000667094 to 0.000667094
Heightened Def Con from 0.000668108 to 0.000668108
Heightened Def Con from 0.000670107 to 0.000670108
Heightened Def Con from 0.000671153 to 0.000671153
Heightened Def Con from 0.000673118 to 0.000673118
Heightened Def Con from 0.0006742 to 0.0006742
Heightened Def Con from 0.000676127 to 0.000676128
Heightened Def Con from 0.000677249 to 0.000677249
Heightened Def Con from 0.000679134 to 0.000679134
Heightened Def Con from 0.000680299 to 0.000680299
Heightened Def Con from 0.000682139 to 0.000682139
Heightened Def Con from 0.00068335 to 0.000683351
Heightened Def Con from 0.000685143 to 0.000685143
Heightened Def Con from 0.000686403 to 0.000686404
Heightened Def Con from 0.000688145 to 0.000688146
Heightened Def Con from 0.000689458 to 0.000689459
Heightened Def Con from 0.000691146 to 0.000691147
Heightened Def Con from 0.000692512 to 0.000692512
Heightened Def Con from 0.000694148 to 0.000694148
Heightened Def Con from 0.000695568 to 0.000695568
Heightened Def Con from 0.000697148 to 0.000697148
Heightened Def Con from 0.000698625 to 0.000698625
Heightened Def Con from 0.000700148 to 0.000700149
Heightened Def Con from 0.00070168 to 0.000701681
Heightened Def Con from 0.000703148 to 0.000703148
Heightened Def Con from 0.000704736 to 0.000704736
Heightened Def Con from 0.000706148 to 0.000706149
Heightened Def Con from 0.000707791 to 0.000707792
Heightened Def Con from 0.000709149 to 0.000709149
Heightened Def Con from 0.000710846 to 0.000710847
Heightened Def Con from 0.00071215 to 0.000712151
Heightened Def Con from 0.000713899 to 0.0007139
Heightened Def Con from 0.000715152 to 0.000715152
Heightened Def Con from 0.000716953 to 0.000716953
Heightened Def Con from 0.000718157 to 0.000718158
Heightened Def Con from 0.000720006 to 0.000720006
Heightened Def Con from 0.000721162 to 0.000721163
Heightened Def Con from 0.000723056 to 0.000723056
Heightened Def Con from 0.00072417 to 0.000724171
Heightened Def Con from 0.000726105 to 0.000726105
Heightened Def Con from 0.000727179 to 0.000727179
Heightened Def Con from 0.000729151 to 0.000729152
Heightened Def Con from 0.000730191 to 0.000730191
Heightened Def Con from 0.000732195 to 0.000732195
Heightened Def Con from 0.000733202 to 0.000733203
Heightened Def Con from 0.000735236 to 0.000735237
Heightened Def Con from 0.000736217 to 0.000736217
Heightened Def Con from 0.000738275 to 0.000738275
Heightened Def Con from 0.000739233 to 0.000739234
Heightened Def Con from 0.000741311 to 0.000741311
Heightened Def Con from 0.000742253 to 0.000742254
Heightened Def Con from 0.000744346 to 0.000744347
Heightened Def Con from 0.000745277 to 0.000745278
Heightened Def Con from 0.000747378 to 0.000747378
Heightened Def Con from 0.000748301 to 0.000748302
Heightened Def Con from 0.000750406 to 0.000750407
Heightened Def Con from 0.000751329 to 0.000751329
Heightened Def Con from 0.000753432 to 0.000753432
Heightened Def Con from 0.000754359 to 0.00075436
Heightened Def Con from 0.000756457 to 0.000756457
Heightened Def Con from 0.000757393 to 0.000757394
Heightened Def Con from 0.000759478 to 0.000759478
Heightened Def Con from 0.000760429 to 0.000760429
Heightened Def Con from 0.000762496 to 0.000762497
Heightened Def Con from 0.000763467 to 0.000763468
Heightened Def Con from 0.000765513 to 0.000765513
Heightened Def Con from 0.000766508 to 0.000766509
Heightened Def Con from 0.000768527 to 0.000768527
Heightened Def Con from 0.000769551 to 0.000769552
Heightened Def Con from 0.000771538 to 0.000771539
Heightened Def Con from 0.000772597 to 0.000772598
Heightened Def Con from 0.000774548 to 0.000774549
Heightened Def Con from 0.000775645 to 0.000775645
Heightened Def Con from 0.000777556 to 0.000777556
Heightened Def Con from 0.000778694 to 0.000778695
Heightened Def Con from 0.000780562 to 0.000780562
Heightened Def Con from 0.000781744 to 0.000781744
Heightened Def Con from 0.000783566 to 0.000783567
Heightened Def Con from 0.000784797 to 0.000784798
Heightened Def Con from 0.00078657 to 0.00078657
Heightened Def Con from 0.00078785 to 0.000787851
Heightened Def Con from 0.000789571 to 0.000789572
Heightened Def Con from 0.000790906 to 0.000790906
Heightened Def Con from 0.000792572 to 0.000792572
Heightened Def Con from 0.000793961 to 0.000793961
Heightened Def Con from 0.000795573 to 0.000795574
Heightened Def Con from 0.000797017 to 0.000797017
Heightened Def Con from 0.000798574 to 0.000798575
Heightened Def Con from 0.000800074 to 0.000800074
Heightened Def Con from 0.000801574 to 0.00080158
Heightened Def Con from 0.000803129 to 0.00080313
Heightened Def Con from 0.000804574 to 0.000804575
Heightened Def Con from 0.000806186 to 0.000806186
Heightened Def Con from 0.000809242 to 0.000809242
Heightened Def Con from 0.000810577 to 0.000810578
Heightened Def Con from 0.000812296 to 0.000812297
Heightened Def Con from 0.000813579 to 0.00081358
Heightened Def Con from 0.00081535 to 0.000815351
Heightened Def Con from 0.000818404 to 0.000818404
Heightened Def Con from 0.000819588 to 0.000819589
Heightened Def Con from 0.000821454 to 0.000821455
Heightened Def Con from 0.000822594 to 0.0008226
Heightened Def Con from 0.000824503 to 0.000824504
Heightened Def Con from 0.000825601 to 0.000825601
Heightened Def Con from 0.00082755 to 0.000827551
Heightened Def Con from 0.000828611 to 0.000828611
Heightened Def Con from 0.000830595 to 0.000830595
Heightened Def Con from 0.000831622 to 0.000831622
Heightened Def Con from 0.000833637 to 0.000833637
Heightened Def Con from 0.000834636 to 0.000834643
Heightened Def Con from 0.000836678 to 0.000836679
Heightened Def Con from 0.000837653 to 0.000837654
Heightened Def Con from 0.000839718 to 0.000839719
Heightened Def Con from 0.000840673 to 0.000840673
Heightened Def Con from 0.000842754 to 0.000842755
Heightened Def Con from 0.000843696 to 0.000843696
Heightened Def Con from 0.000845789 to 0.00084579
Heightened Def Con from 0.000846722 to 0.000846722
Heightened Def Con from 0.000848822 to 0.000848822
Heightened Def Con from 0.00084975 to 0.00084975
Heightened Def Con from 0.000851851 to 0.000851852
Heightened Def Con from 0.00085278 to 0.00085278
Heightened Def Con from 0.000854878 to 0.000854878
Heightened Def Con from 0.000855814 to 0.000855814
Heightened Def Con from 0.000857902 to 0.000857903
Heightened Def Con from 0.00085885 to 0.00085885
Heightened Def Con from 0.000860922 to 0.000860923
Heightened Def Con from 0.000861887 to 0.000861888
Heightened Def Con from 0.000863942 to 0.000863942
Heightened Def Con from 0.000864928 to 0.000864929
Heightened Def Con from 0.000866958 to 0.000866958
Heightened Def Con from 0.000867971 to 0.000867972
Heightened Def Con from 0.000869971 to 0.000869972
Heightened Def Con from 0.000871015 to 0.000871016
Heightened Def Con from 0.000872981 to 0.000872981
Heightened Def Con from 0.000874061 to 0.000874061
Heightened Def Con from 0.00087599 to 0.00087599
Heightened Def Con from 0.000877109 to 0.00087711
Heightened Def Con from 0.000878997 to 0.000878998
Heightened Def Con from 0.00088016 to 0.000880166
Heightened Def Con from 0.000883211 to 0.000883212
Heightened Def Con from 0.000885006 to 0.000885006
Heightened Def Con from 0.000886264 to 0.000886264
Heightened Def Con from 0.000888008 to 0.000888009
Heightened Def Con from 0.000889319 to 0.000889319
Heightened Def Con from 0.000891011 to 0.000891011
Heightened Def Con from 0.000892373 to 0.000892374
Heightened Def Con from 0.000894011 to 0.000894012
Heightened Def Con from 0.00089543 to 0.00089543
Heightened Def Con from 0.000897011 to 0.000897012
Heightened Def Con from 0.000898485 to 0.000898486
Heightened Def Con from 0.000900012 to 0.000900013
Heightened Def Con from 0.000903013 to 0.000903013
Heightened Def Con from 0.000904598 to 0.000904604
Heightened Def Con from 0.000906013 to 0.000906013
Heightened Def Con from 0.000907653 to 0.000907654
Heightened Def Con from 0.000909012 to 0.000909012
Heightened Def Con from 0.000910707 to 0.000910707
Heightened Def Con from 0.000912014 to 0.000912014
Heightened Def Con from 0.000913762 to 0.000913762
Heightened Def Con from 0.000915016 to 0.000915017
Heightened Def Con from 0.000916814 to 0.000916815
Heightened Def Con from 0.00091802 to 0.000918021
Heightened Def Con from 0.000919867 to 0.000919868
Heightened Def Con from 0.000921026 to 0.000921026
Heightened Def Con from 0.000922917 to 0.000922918
Heightened Def Con from 0.000924032 to 0.000924033
Heightened Def Con from 0.000925966 to 0.000925967
Heightened Def Con from 0.000927043 to 0.000927043
Heightened Def Con from 0.000929013 to 0.000929013
Heightened Def Con from 0.000930053 to 0.000930054
Heightened Def Con from 0.000932058 to 0.000932058
Heightened Def Con from 0.000933066 to 0.000933067
Heightened Def Con from 0.000935097 to 0.000935098
Heightened Def Con from 0.00093608 to 0.000936081
Heightened Def Con from 0.000938138 to 0.000938138
Heightened Def Con from 0.000939098 to 0.000939098
Heightened Def Con from 0.000941175 to 0.000941175
Heightened Def Con from 0.000942117 to 0.000942118
Heightened Def Con from 0.000944209 to 0.00094421
Heightened Def Con from 0.00094514 to 0.000945141
Heightened Def Con from 0.000947241 to 0.000947241
Heightened Def Con from 0.000948165 to 0.000948165
Heightened Def Con from 0.00095027 to 0.00095027
Heightened Def Con from 0.000951193 to 0.000951194
Heightened Def Con from 0.000953298 to 0.000953298
Heightened Def Con from 0.000954224 to 0.000954225
Heightened Def Con from 0.000956321 to 0.000956321
Heightened Def Con from 0.000957257 to 0.000957257
Heightened Def Con from 0.000959341 to 0.000959342
Heightened Def Con from 0.000960291 to 0.000960292
Heightened Def Con from 0.000962361 to 0.000962361
Heightened Def Con from 0.00096333 to 0.000963331
Heightened Def Con from 0.000965377 to 0.000965378
Heightened Def Con from 0.000966372 to 0.000966372
Heightened Def Con from 0.000968392 to 0.000968392
Heightened Def Con from 0.000969414 to 0.000969415
Heightened Def Con from 0.000971403 to 0.000971404
Heightened Def Con from 0.000972459 to 0.00097246
Heightened Def Con from 0.000974412 to 0.000974413
Heightened Def Con from 0.000975508 to 0.000975508
Heightened Def Con from 0.00097742 to 0.000977421
Heightened Def Con from 0.000978556 to 0.000978557
Heightened Def Con from 0.000980426 to 0.000980427
Heightened Def Con from 0.000981607 to 0.000981608
Heightened Def Con from 0.000983431 to 0.000983432
Heightened Def Con from 0.00098466 to 0.00098466
Heightened Def Con from 0.000986435 to 0.000986435
Heightened Def Con from 0.000987713 to 0.000987713
Heightened Def Con from 0.000989435 to 0.000989436
Heightened Def Con from 0.000990767 to 0.000990767
Heightened Def Con from 0.000992436 to 0.000992437
Heightened Def Con from 0.000993822 to 0.000993823
Heightened Def Con from 0.000996878 to 0.000996879
Heightened Def Con from 0.000998437 to 0.000998437
Heightened Def Con from 0.000999935 to 0.000999935
Heightened Def Con from 0.00100144 to 0.00100144
Heightened Def Con from 0.00100299 to 0.00100299
Heightened Def Con from 0.00100444 to 0.00100444
Heightened Def Con from 0.00100605 to 0.00100605
Heightened Def Con from 0.00100744 to 0.00100745
Heightened Def Con from 0.0010091 to 0.00100911
Heightened Def Con from 0.00101044 to 0.00101044
Heightened Def Con from 0.00101216 to 0.00101216
Heightened Def Con from 0.00101345 to 0.00101345
Heightened Def Con from 0.00101522 to 0.00101522
Heightened Def Con from 0.00101645 to 0.00101646
Heightened Def Con from 0.00101827 to 0.00101827
Heightened Def Con from 0.00101946 to 0.00101946
Heightened Def Con from 0.00102132 to 0.00102132
Heightened Def Con from 0.00102246 to 0.00102246
Heightened Def Con from 0.00102437 to 0.00102437
Heightened Def Con from 0.00102547 to 0.00102547
Heightened Def Con from 0.00102741 to 0.00102741
Heightened Def Con from 0.00102848 to 0.00102848
Heightened Def Con from 0.00103046 to 0.00103046
Heightened Def Con from 0.00103149 to 0.00103149
Heightened Def Con from 0.0010335 to 0.0010335
Heightened Def Con from 0.0010345 to 0.0010345
Heightened Def Con from 0.00103654 to 0.00103654
Heightened Def Con from 0.00103752 to 0.00103752
Heightened Def Con from 0.00103958 to 0.00103958
Heightened Def Con from 0.00104054 to 0.00104054
Heightened Def Con from 0.00104262 to 0.00104262
Heightened Def Con from 0.00104356 to 0.00104356
Heightened Def Con from 0.00104565 to 0.00104565
Heightened Def Con from 0.00104659 to 0.00104659
Heightened Def Con from 0.00104869 to 0.00104869
Heightened Def Con from 0.00104962 to 0.00104962
Heightened Def Con from 0.00105172 to 0.00105172
Heightened Def Con from 0.00105265 to 0.00105265
Heightened Def Con from 0.00105474 to 0.00105474
Heightened Def Con from 0.00105568 to 0.00105568
Heightened Def Con from 0.00105777 to 0.00105777
Heightened Def Con from 0.00105871 to 0.00105871
Heightened Def Con from 0.00106079 to 0.00106079
Heightened Def Con from 0.00106175 to 0.00106175
Heightened Def Con from 0.00106381 to 0.00106381
Heightened Def Con from 0.00106479 to 0.00106479
Heightened Def Con from 0.00106682 to 0.00106682
Heightened Def Con from 0.00106784 to 0.00106784
Heightened Def Con from 0.00106984 to 0.00106984
Heightened Def Con from 0.00107088 to 0.00107088
Heightened Def Con from 0.00107285 to 0.00107285
Heightened Def Con from 0.00107393 to 0.00107393
Heightened Def Con from 0.00107586 to 0.00107586
Heightened Def Con from 0.00107698 to 0.00107698
Heightened Def Con from 0.00107887 to 0.00107887
Heightened Def Con from 0.00108003 to 0.00108003
Heightened Def Con from 0.00108187 to 0.00108187
Heightened Def Con from 0.00108308 to 0.00108308
Heightened Def Con from 0.00108487 to 0.00108488
Heightened Def Con from 0.00108613 to 0.00108613
Heightened Def Con from 0.00108788 to 0.00108788
Heightened Def Con from 0.00108919 to 0.00108919
Heightened Def Con from 0.00109088 to 0.00109088
Heightened Def Con from 0.00109224 to 0.00109224
Heightened Def Con from 0.00109388 to 0.00109388
Heightened Def Con from 0.0010953 to 0.0010953
Heightened Def Con from 0.00109688 to 0.00109688
Heightened Def Con from 0.00109835 to 0.00109835
Heightened Def Con from 0.00109988 to 0.00109988
Heightened Def Con from 0.00110141 to 0.00110141
Heightened Def Con from 0.00110288 to 0.00110288
Heightened Def Con from 0.00110447 to 0.00110447
Heightened Def Con from 0.00110588 to 0.00110588
Heightened Def Con from 0.00110752 to 0.00110753
Heightened Def Con from 0.00110889 to 0.00110889
Heightened Def Con from 0.00111058 to 0.00111058
Heightened Def Con from 0.00111189 to 0.00111189
Heightened Def Con from 0.00111363 to 0.00111363
Heightened Def Con from 0.00111489 to 0.00111489
Heightened Def Con from 0.00111669 to 0.00111669
Heightened Def Con from 0.0011179 to 0.0011179
Heightened Def Con from 0.00111974 to 0.00111974
Heightened Def Con from 0.0011209 to 0.0011209
Heightened Def Con from 0.00112279 to 0.00112279
Heightened Def Con from 0.00112391 to 0.00112391
Heightened Def Con from 0.00112584 to 0.00112584
Heightened Def Con from 0.00112692 to 0.00112692
Heightened Def Con from 0.00112993 to 0.00112993
Heightened Def Con from 0.00113193 to 0.00113193
Heightened Def Con from 0.00113294 to 0.00113294
Heightened Def Con from 0.00113497 to 0.00113497
Heightened Def Con from 0.00113596 to 0.00113596
Heightened Def Con from 0.00113801 to 0.00113801
Heightened Def Con from 0.00113897 to 0.00113898
Heightened Def Con from 0.00114105 to 0.00114105
Heightened Def Con from 0.00114199 to 0.00114199
Heightened Def Con from 0.00114409 to 0.00114409
Heightened Def Con from 0.00114502 to 0.00114502
Heightened Def Con from 0.00114712 to 0.00114712
Heightened Def Con from 0.00114804 to 0.00114804
Heightened Def Con from 0.00115015 to 0.00115015
Heightened Def Con from 0.00115107 to 0.00115107
Heightened Def Con from 0.00115317 to 0.00115317
Heightened Def Con from 0.0011541 to 0.0011541
Heightened Def Con from 0.0011562 to 0.0011562
Heightened Def Con from 0.00115713 to 0.00115713
Heightened Def Con from 0.00115922 to 0.00115922
Heightened Def Con from 0.00116017 to 0.00116017
Heightened Def Con from 0.00116224 to 0.00116224
Heightened Def Con from 0.00116321 to 0.00116321
Heightened Def Con from 0.00116525 to 0.00116525
Heightened Def Con from 0.00116625 to 0.00116625
Heightened Def Con from 0.00116827 to 0.00116827
Heightened Def Con from 0.00116929 to 0.00116929
Heightened Def Con from 0.00117128 to 0.00117128
Heightened Def Con from 0.00117234 to 0.00117234
Heightened Def Con from 0.00117429 to 0.00117429
Heightened Def Con from 0.00117539 to 0.00117539
Heightened Def Con from 0.0011773 to 0.0011773
Heightened Def Con from 0.00117843 to 0.00117843
Heightened Def Con from 0.00118031 to 0.00118031
Heightened Def Con from 0.00118148 to 0.00118148
Heightened Def Con from 0.00118331 to 0.00118331
Heightened Def Con from 0.00118454 to 0.00118454
Heightened Def Con from 0.00118631 to 0.00118631
Heightened Def Con from 0.00118759 to 0.00118759
Heightened Def Con from 0.00118931 to 0.00118932
Heightened Def Con from 0.00119064 to 0.00119065
Heightened Def Con from 0.00119232 to 0.00119232
Heightened Def Con from 0.0011937 to 0.0011937
Heightened Def Con from 0.00119532 to 0.00119532
Heightened Def Con from 0.00119676 to 0.00119676
Heightened Def Con from 0.00119832 to 0.00119832
Heightened Def Con from 0.00119981 to 0.00119981
Heightened Def Con from 0.00120132 to 0.00120132
Heightened Def Con from 0.00120287 to 0.00120287
Heightened Def Con from 0.00120432 to 0.00120432
Heightened Def Con from 0.00120592 to 0.00120592
Heightened Def Con from 0.00120732 to 0.00120732
Heightened Def Con from 0.00120898 to 0.00120898
Heightened Def Con from 0.00121032 to 0.00121033
Heightened Def Con from 0.00121204 to 0.00121204
Heightened Def Con from 0.00121332 to 0.00121332
Heightened Def Con from 0.00121509 to 0.00121509
Heightened Def Con from 0.00121633 to 0.00121633
Heightened Def Con from 0.00121814 to 0.00121814
Heightened Def Con from 0.00121933 to 0.00121933
Heightened Def Con from 0.00122119 to 0.00122119
Heightened Def Con from 0.00122234 to 0.00122234
Heightened Def Con from 0.00122424 to 0.00122424
Heightened Def Con from 0.00122534 to 0.00122535
Heightened Def Con from 0.00122729 to 0.00122729
Heightened Def Con from 0.00122835 to 0.00122835
Heightened Def Con from 0.00123034 to 0.00123034
Heightened Def Con from 0.00123137 to 0.00123137
Heightened Def Con from 0.00123438 to 0.00123438
Heightened Def Con from 0.00123642 to 0.00123642
Heightened Def Con from 0.0012374 to 0.0012374
Heightened Def Con from 0.00123946 to 0.00123946
Heightened Def Con from 0.00124042 to 0.00124042
Heightened Def Con from 0.0012425 to 0.0012425
Heightened Def Con from 0.00124344 to 0.00124344
Heightened Def Con from 0.00124553 to 0.00124553
Heightened Def Con from 0.00124647 to 0.00124647
Heightened Def Con from 0.00124857 to 0.00124857
Heightened Def Con from 0.00124949 to 0.0012495
Heightened Def Con from 0.0012516 to 0.0012516
Heightened Def Con from 0.00125252 to 0.00125252
Heightened Def Con from 0.00125462 to 0.00125462
Heightened Def Con from 0.00125556 to 0.00125556
Heightened Def Con from 0.00125765 to 0.00125765
Heightened Def Con from 0.00125859 to 0.00125859
Heightened Def Con from 0.00126163 to 0.00126163
Heightened Def Con from 0.00126369 to 0.00126369
Heightened Def Con from 0.00126467 to 0.00126467
Heightened Def Con from 0.0012667 to 0.0012667
Heightened Def Con from 0.00126771 to 0.00126771
Heightened Def Con from 0.00126972 to 0.00126972
Heightened Def Con from 0.00127076 to 0.00127076
Heightened Def Con from 0.00127273 to 0.00127273
Heightened Def Con from 0.0012738 to 0.00127381
Heightened Def Con from 0.00127574 to 0.00127574
Heightened Def Con from 0.00127685 to 0.00127685
Heightened Def Con from 0.00127874 to 0.00127874
Heightened Def Con from 0.0012799 to 0.00127991
Heightened Def Con from 0.00128175 to 0.00128175
Heightened Def Con from 0.00128295 to 0.00128296
Heightened Def Con from 0.00128475 to 0.00128475
Heightened Def Con from 0.00128601 to 0.00128601
Heightened Def Con from 0.00128776 to 0.00128776
Heightened Def Con from 0.00128906 to 0.00128906
Heightened Def Con from 0.00129076 to 0.00129076
Heightened Def Con from 0.00129212 to 0.00129212
Heightened Def Con from 0.00129376 to 0.00129376
Heightened Def Con from 0.00129517 to 0.00129517
Heightened Def Con from 0.00129676 to 0.00129676
Heightened Def Con from 0.00129823 to 0.00129823
Heightened Def Con from 0.00129976 to 0.00129976
Heightened Def Con from 0.00130129 to 0.00130129
Heightened Def Con from 0.00130276 to 0.00130276
Heightened Def Con from 0.00130434 to 0.00130434
Heightened Def Con from 0.00130576 to 0.00130576
Heightened Def Con from 0.0013074 to 0.0013074
Heightened Def Con from 0.00130876 to 0.00130876
Heightened Def Con from 0.00131045 to 0.00131045
Heightened Def Con from 0.00131176 to 0.00131176
Heightened Def Con from 0.0013135 to 0.0013135
Heightened Def Con from 0.00131476 to 0.00131476
Heightened Def Con from 0.00131656 to 0.00131656
Heightened Def Con from 0.00131777 to 0.00131777
Heightened Def Con from 0.00131961 to 0.00131961
Heightened Def Con from 0.00132077 to 0.00132077
Heightened Def Con from 0.00132266 to 0.00132266
Heightened Def Con from 0.00132378 to 0.00132378
Heightened Def Con from 0.00132571 to 0.00132571
Heightened Def Con from 0.00132679 to 0.00132679
Heightened Def Con from 0.00132876 to 0.00132876
Heightened Def Con from 0.0013298 to 0.0013298
Heightened Def Con from 0.0013318 to 0.0013318
Heightened Def Con from 0.00133281 to 0.00133281
Heightened Def Con from 0.00133484 to 0.00133484
Heightened Def Con from 0.00133583 to 0.00133583
Heightened Def Con from 0.00133788 to 0.00133788
Heightened Def Con from 0.00133884 to 0.00133884
Heightened Def Con from 0.00134092 to 0.00134092
Heightened Def Con from 0.00134186 to 0.00134187
Heightened Def Con from 0.00134396 to 0.00134396
Heightened Def Con from 0.00134489 to 0.00134489
Heightened Def Con from 0.00134699 to 0.00134699
Heightened Def Con from 0.00134791 to 0.00134791
Heightened Def Con from 0.00135002 to 0.00135002
Heightened Def Con from 0.00135094 to 0.00135094
Heightened Def Con from 0.00135304 to 0.00135304
Heightened Def Con from 0.00135397 to 0.00135397
Heightened Def Con from 0.00135607 to 0.00135607
Heightened Def Con from 0.001357 to 0.001357
Heightened Def Con from 0.00135909 to 0.00135909
Heightened Def Con from 0.00136004 to 0.00136004
Heightened Def Con from 0.00136211 to 0.00136211
Heightened Def Con from 0.00136308 to 0.00136308
Heightened Def Con from 0.00136513 to 0.00136513
Heightened Def Con from 0.00136612 to 0.00136612
Heightened Def Con from 0.00136814 to 0.00136814
Heightened Def Con from 0.00136916 to 0.00136916
Heightened Def Con from 0.00137115 to 0.00137115
Heightened Def Con from 0.00137221 to 0.00137221
Heightened Def Con from 0.00137416 to 0.00137416
Heightened Def Con from 0.00137525 to 0.00137525
Heightened Def Con from 0.00137717 to 0.00137717
Heightened Def Con from 0.0013783 to 0.0013783
Heightened Def Con from 0.00138018 to 0.00138018
Heightened Def Con from 0.00138135 to 0.00138135
Heightened Def Con from 0.00138318 to 0.00138318
Heightened Def Con from 0.00138441 to 0.00138441
Heightened Def Con from 0.00138746 to 0.00138746
Heightened Def Con from 0.00138919 to 0.00138919
Heightened Def Con from 0.00139051 to 0.00139052
Heightened Def Con from 0.00139219 to 0.00139219
Heightened Def Con from 0.00139357 to 0.00139357
Heightened Def Con from 0.00139519 to 0.00139519
Heightened Def Con from 0.00139663 to 0.00139663
Heightened Def Con from 0.00139819 to 0.00139819
Heightened Def Con from 0.00139968 to 0.00139968
Heightened Def Con from 0.00140119 to 0.00140119
Heightened Def Con from 0.00140274 to 0.00140274
Heightened Def Con from 0.00140419 to 0.0014042
Heightened Def Con from 0.0014058 to 0.0014058
Heightened Def Con from 0.00140719 to 0.00140719
Heightened Def Con from 0.00140885 to 0.00140885
Heightened Def Con from 0.00141019 to 0.00141019
Heightened Def Con from 0.00141191 to 0.00141191
Heightened Def Con from 0.0014132 to 0.0014132
Heightened Def Con from 0.00141496 to 0.00141496
Heightened Def Con from 0.0014162 to 0.0014162
Heightened Def Con from 0.00141801 to 0.00141801
Heightened Def Con from 0.0014192 to 0.0014192
Heightened Def Con from 0.00142106 to 0.00142106
Heightened Def Con from 0.00142221 to 0.00142221
Heightened Def Con from 0.00142411 to 0.00142411
Heightened Def Con from 0.00142522 to 0.00142522
Heightened Def Con from 0.00142716 to 0.00142716
Heightened Def Con from 0.00142823 to 0.00142823
Heightened Def Con from 0.00143021 to 0.00143021
Heightened Def Con from 0.00143124 to 0.00143124
Heightened Def Con from 0.00143325 to 0.00143325
Heightened Def Con from 0.00143425 to 0.00143425
Heightened Def Con from 0.00143629 to 0.00143629
Heightened Def Con from 0.00143727 to 0.00143727
Heightened Def Con from 0.00143933 to 0.00143933
Heightened Def Con from 0.00144029 to 0.00144029
Heightened Def Con from 0.00144237 to 0.00144237
Heightened Def Con from 0.00144331 to 0.00144331
Heightened Def Con from 0.00144541 to 0.00144541
Heightened Def Con from 0.00144634 to 0.00144634
Heightened Def Con from 0.00144844 to 0.00144844
Heightened Def Con from 0.00144937 to 0.00144937
Heightened Def Con from 0.00145147 to 0.00145147
Heightened Def Con from 0.0014524 to 0.0014524
Heightened Def Con from 0.0014545 to 0.0014545
Heightened Def Con from 0.00145543 to 0.00145543
Heightened Def Con from 0.00145752 to 0.00145752
Heightened Def Con from 0.00145847 to 0.00145847
Heightened Def Con from 0.00146054 to 0.00146054
Heightened Def Con from 0.00146151 to 0.00146151
Heightened Def Con from 0.00146356 to 0.00146356
Heightened Def Con from 0.00146455 to 0.00146455
Heightened Def Con from 0.00146658 to 0.00146658
Heightened Def Con from 0.00146759 to 0.00146759
Heightened Def Con from 0.00146959 to 0.00146959
Heightened Def Con from 0.00147063 to 0.00147063
Heightened Def Con from 0.0014726 to 0.0014726
Heightened Def Con from 0.00147368 to 0.00147368
Heightened Def Con from 0.00147561 to 0.00147561
Heightened Def Con from 0.00147673 to 0.00147673
Heightened Def Con from 0.00147862 to 0.00147862
Heightened Def Con from 0.00147978 to 0.00147978
Heightened Def Con from 0.00148163 to 0.00148163
Heightened Def Con from 0.00148283 to 0.00148283
Heightened Def Con from 0.00148463 to 0.00148463
Heightened Def Con from 0.00148588 to 0.00148588
Heightened Def Con from 0.00148763 to 0.00148763
Heightened Def Con from 0.00148894 to 0.00148894
Heightened Def Con from 0.00149064 to 0.00149064
Heightened Def Con from 0.00149199 to 0.00149199
Heightened Def Con from 0.00149364 to 0.00149364
Heightened Def Con from 0.00149505 to 0.00149505
Heightened Def Con from 0.00149664 to 0.00149664
Heightened Def Con from 0.0014981 to 0.00149811
Heightened Def Con from 0.00149964 to 0.00149964
Heightened Def Con from 0.00150116 to 0.00150116
Heightened Def Con from 0.00150264 to 0.00150264
Heightened Def Con from 0.00150422 to 0.00150422
Heightened Def Con from 0.00150564 to 0.00150564
Heightened Def Con from 0.00150727 to 0.00150727
Heightened Def Con from 0.00150864 to 0.00150864
Heightened Def Con from 0.00151033 to 0.00151033
Heightened Def Con from 0.00151164 to 0.00151164
Heightened Def Con from 0.00151338 to 0.00151338
Heightened Def Con from 0.00151464 to 0.00151464
Heightened Def Con from 0.00151643 to 0.00151643
Heightened Def Con from 0.00151764 to 0.00151764
Heightened Def Con from 0.00151948 to 0.00151948
Heightened Def Con from 0.00152065 to 0.00152065
Heightened Def Con from 0.00152253 to 0.00152254
Heightened Def Con from 0.00152366 to 0.00152366
Heightened Def Con from 0.00152558 to 0.00152558
Heightened Def Con from 0.00152666 to 0.00152666
Heightened Def Con from 0.00152863 to 0.00152863
Heightened Def Con from 0.00152967 to 0.00152967
Heightened Def Con from 0.00153167 to 0.00153167
Heightened Def Con from 0.00153269 to 0.00153269
Heightened Def Con from 0.00153472 to 0.00153472
Heightened Def Con from 0.0015357 to 0.0015357
Heightened Def Con from 0.00153776 to 0.00153776
Heightened Def Con from 0.00153872 to 0.00153872
Heightened Def Con from 0.00154079 to 0.00154079
Heightened Def Con from 0.00154174 to 0.00154174
Heightened Def Con from 0.00154383 to 0.00154383
Heightened Def Con from 0.00154476 to 0.00154476
Heightened Def Con from 0.00154686 to 0.00154686
Heightened Def Con from 0.00154779 to 0.00154779
Heightened Def Con from 0.00154989 to 0.00154989
Heightened Def Con from 0.00155081 to 0.00155081
Heightened Def Con from 0.00155292 to 0.00155292
Heightened Def Con from 0.00155384 to 0.00155384
Heightened Def Con from 0.00155594 to 0.00155594
Heightened Def Con from 0.00155688 to 0.00155688
Heightened Def Con from 0.00155896 to 0.00155896
Heightened Def Con from 0.00155991 to 0.00155991
Heightened Def Con from 0.00156198 to 0.00156198
Heightened Def Con from 0.00156295 to 0.00156295
Heightened Def Con from 0.001565 to 0.001565
Heightened Def Con from 0.00156599 to 0.00156599
Heightened Def Con from 0.00156801 to 0.00156801
Heightened Def Con from 0.00156903 to 0.00156903
Heightened Def Con from 0.00157103 to 0.00157103
Heightened Def Con from 0.00157208 to 0.00157208
Heightened Def Con from 0.00157404 to 0.00157404
Heightened Def Con from 0.00157513 to 0.00157513
Heightened Def Con from 0.00157704 to 0.00157705
Heightened Def Con from 0.00157818 to 0.00157818
Heightened Def Con from 0.00158005 to 0.00158005
Heightened Def Con from 0.00158123 to 0.00158123
Heightened Def Con from 0.00158306 to 0.00158306
Heightened Def Con from 0.00158428 to 0.00158428
Heightened Def Con from 0.00158606 to 0.00158606
Heightened Def Con from 0.00158733 to 0.00158733
Heightened Def Con from 0.00158906 to 0.00158906
Heightened Def Con from 0.00159039 to 0.00159039
Heightened Def Con from 0.00159206 to 0.00159206
Heightened Def Con from 0.00159344 to 0.00159344
Heightened Def Con from 0.00159506 to 0.00159507
Heightened Def Con from 0.0015965 to 0.0015965
Heightened Def Con from 0.00159807 to 0.00159807
Heightened Def Con from 0.00159956 to 0.00159956
Heightened Def Con from 0.00160107 to 0.00160107
Heightened Def Con from 0.00160261 to 0.00160261
Heightened Def Con from 0.00160407 to 0.00160407
Heightened Def Con from 0.00160567 to 0.00160567
Heightened Def Con from 0.00160707 to 0.00160707
Heightened Def Con from 0.00160872 to 0.00160872
Heightened Def Con from 0.00161007 to 0.00161007
Heightened Def Con from 0.00161178 to 0.00161178
Heightened Def Con from 0.00161307 to 0.00161308
Heightened Def Con from 0.00161483 to 0.00161483
Heightened Def Con from 0.00161607 to 0.00161607
Heightened Def Con from 0.00161788 to 0.00161789
Heightened Def Con from 0.00161908 to 0.00161908
Heightened Def Con from 0.00162094 to 0.00162094
Heightened Def Con from 0.00162208 to 0.00162208
Heightened Def Con from 0.00162399 to 0.00162399
Heightened Def Con from 0.00162509 to 0.0016251
Heightened Def Con from 0.00162704 to 0.00162704
Heightened Def Con from 0.0016281 to 0.0016281
Heightened Def Con from 0.00163008 to 0.00163008
Heightened Def Con from 0.00163111 to 0.00163111
Heightened Def Con from 0.00163313 to 0.00163313
Heightened Def Con from 0.00163413 to 0.00163413
Heightened Def Con from 0.00163617 to 0.00163617
Heightened Def Con from 0.00163715 to 0.00163715
Heightened Def Con from 0.00163921 to 0.00163921
Heightened Def Con from 0.00164017 to 0.00164017
Heightened Def Con from 0.00164225 to 0.00164225
Heightened Def Con from 0.00164319 to 0.00164319
Heightened Def Con from 0.00164528 to 0.00164528
Heightened Def Con from 0.00164621 to 0.00164621
Heightened Def Con from 0.00164831 to 0.00164831
Heightened Def Con from 0.00164924 to 0.00164924
Heightened Def Con from 0.00165134 to 0.00165134
Heightened Def Con from 0.00165227 to 0.00165228
Heightened Def Con from 0.00165437 to 0.00165437
Heightened Def Con from 0.00165531 to 0.00165531
Heightened Def Con from 0.00165739 to 0.0016574
Heightened Def Con from 0.00165834 to 0.00165834
Heightened Def Con from 0.00166042 to 0.00166042
Heightened Def Con from 0.00166138 to 0.00166138
Heightened Def Con from 0.00166344 to 0.00166344
Heightened Def Con from 0.00166442 to 0.00166442
Heightened Def Con from 0.00166645 to 0.00166645
Heightened Def Con from 0.00166746 to 0.00166746
Heightened Def Con from 0.00166947 to 0.00166947
Heightened Def Con from 0.0016705 to 0.00167051
Heightened Def Con from 0.00167248 to 0.00167248
Heightened Def Con from 0.00167355 to 0.00167355
Heightened Def Con from 0.00167549 to 0.00167549
Heightened Def Con from 0.0016766 to 0.0016766
Heightened Def Con from 0.0016785 to 0.0016785
Heightened Def Con from 0.0016815 to 0.0016815
Heightened Def Con from 0.0016827 to 0.0016827
Heightened Def Con from 0.00168451 to 0.00168451
Heightened Def Con from 0.00168576 to 0.00168576
Heightened Def Con from 0.00168751 to 0.00168751
Heightened Def Con from 0.00168881 to 0.00168881
Heightened Def Con from 0.00169051 to 0.00169051
Heightened Def Con from 0.00169186 to 0.00169186
Heightened Def Con from 0.00169351 to 0.00169351
Heightened Def Con from 0.00169492 to 0.00169492
Heightened Def Con from 0.00169651 to 0.00169651
Heightened Def Con from 0.00169798 to 0.00169798
Heightened Def Con from 0.00169951 to 0.00169951
Heightened Def Con from 0.00170103 to 0.00170104
Heightened Def Con from 0.00170251 to 0.00170252
Heightened Def Con from 0.00170409 to 0.00170409
Heightened Def Con from 0.00170551 to 0.00170552
Heightened Def Con from 0.00170715 to 0.00170715
Heightened Def Con from 0.00170852 to 0.00170852
Heightened Def Con from 0.0017102 to 0.0017102
Heightened Def Con from 0.00171152 to 0.00171152
Heightened Def Con from 0.00171326 to 0.00171326
Heightened Def Con from 0.00171452 to 0.00171452
Heightened Def Con from 0.00171631 to 0.00171631
Heightened Def Con from 0.00171752 to 0.00171752
Heightened Def Con from 0.00171936 to 0.00171936
Heightened Def Con from 0.00172053 to 0.00172053
Heightened Def Con from 0.00172241 to 0.00172241
Heightened Def Con from 0.00172353 to 0.00172353
Heightened Def Con from 0.00172546 to 0.00172546
Heightened Def Con from 0.00172654 to 0.00172654
Heightened Def Con from 0.00172851 to 0.00172851
Heightened Def Con from 0.00172955 to 0.00172955
Heightened Def Con from 0.00173155 to 0.00173155
Heightened Def Con from 0.00173256 to 0.00173256
Heightened Def Con from 0.00173459 to 0.0017346
Heightened Def Con from 0.00173558 to 0.00173558
Heightened Def Con from 0.00173763 to 0.00173763
Heightened Def Con from 0.0017386 to 0.0017386
Heightened Def Con from 0.00174067 to 0.00174067
Heightened Def Con from 0.00174162 to 0.00174162
Heightened Def Con from 0.0017437 to 0.00174371
Heightened Def Con from 0.00174464 to 0.00174464
Heightened Def Con from 0.00174674 to 0.00174674
Heightened Def Con from 0.00174766 to 0.00174766
Heightened Def Con from 0.00174977 to 0.00174977
Heightened Def Con from 0.00175069 to 0.00175069
Heightened Def Con from 0.00175279 to 0.00175279
Heightened Def Con from 0.00175372 to 0.00175372
Heightened Def Con from 0.00175582 to 0.00175582
Heightened Def Con from 0.00175675 to 0.00175675
Heightened Def Con from 0.00175884 to 0.00175884
Heightened Def Con from 0.00175979 to 0.00175979
Heightened Def Con from 0.00176186 to 0.00176186
Heightened Def Con from 0.00176283 to 0.00176283
Heightened Def Con from 0.00176488 to 0.00176488
Heightened Def Con from 0.00176587 to 0.00176587
Heightened Def Con from 0.00176789 to 0.00176789
Heightened Def Con from 0.00176891 to 0.00176891
Heightened Def Con from 0.0017709 to 0.0017709
Heightened Def Con from 0.00177195 to 0.00177196
Heightened Def Con from 0.00177391 to 0.00177392
Heightened Def Con from 0.001775 to 0.001775
Heightened Def Con from 0.00177692 to 0.00177692
Heightened Def Con from 0.00177805 to 0.00177805
Heightened Def Con from 0.00177993 to 0.00177993
Heightened Def Con from 0.0017811 to 0.0017811
Heightened Def Con from 0.00178293 to 0.00178293
Heightened Def Con from 0.00178415 to 0.00178415
Heightened Def Con from 0.00178594 to 0.00178594
Heightened Def Con from 0.00178721 to 0.00178721
Heightened Def Con from 0.00178894 to 0.00178894
Heightened Def Con from 0.00179026 to 0.00179026
Heightened Def Con from 0.00179194 to 0.00179194
Heightened Def Con from 0.00179332 to 0.00179332
Heightened Def Con from 0.00179494 to 0.00179494
Heightened Def Con from 0.00179637 to 0.00179637
Heightened Def Con from 0.00179794 to 0.00179794
Heightened Def Con from 0.00179943 to 0.00179943
Heightened Def Con from 0.00180094 to 0.00180094
Heightened Def Con from 0.00180249 to 0.00180249
Heightened Def Con from 0.00180394 to 0.00180394
Heightened Def Con from 0.00180554 to 0.00180554
Heightened Def Con from 0.00180694 to 0.00180694
Heightened Def Con from 0.0018086 to 0.0018086
Heightened Def Con from 0.00180994 to 0.00180994
Heightened Def Con from 0.00181165 to 0.00181165
Heightened Def Con from 0.00181294 to 0.00181294
Heightened Def Con from 0.0018147 to 0.0018147
Heightened Def Con from 0.00181595 to 0.00181595
Heightened Def Con from 0.00181776 to 0.00181776
Heightened Def Con from 0.00181895 to 0.00181895
Heightened Def Con from 0.00182081 to 0.00182081
Heightened Def Con from 0.00182196 to 0.00182196
Heightened Def Con from 0.00182386 to 0.00182386
Heightened Def Con from 0.00182496 to 0.00182497
Heightened Def Con from 0.00182691 to 0.00182691
Heightened Def Con from 0.00182797 to 0.00182798
Heightened Def Con from 0.00182995 to 0.00182995
Heightened Def Con from 0.00183099 to 0.00183099
Heightened Def Con from 0.001833 to 0.001833
Heightened Def Con from 0.001834 to 0.001834
Heightened Def Con from 0.00183604 to 0.00183604
Heightened Def Con from 0.00183908 to 0.00183908
Heightened Def Con from 0.00184212 to 0.00184212
Heightened Def Con from 0.00184306 to 0.00184306
Heightened Def Con from 0.00184515 to 0.00184515
Heightened Def Con from 0.00184608 to 0.00184608
Heightened Def Con from 0.00184818 to 0.00184818
Heightened Def Con from 0.00184911 to 0.00184911
Heightened Def Con from 0.00185121 to 0.00185121
Heightened Def Con from 0.00185214 to 0.00185214
Heightened Def Con from 0.00185424 to 0.00185424
Heightened Def Con from 0.00185517 to 0.00185518
Heightened Def Con from 0.00185726 to 0.00185726
Heightened Def Con from 0.00185821 to 0.00185821
Heightened Def Con from 0.00186029 to 0.00186029
Heightened Def Con from 0.00186125 to 0.00186125
Heightened Def Con from 0.0018633 to 0.00186331
Heightened Def Con from 0.00186429 to 0.00186429
Heightened Def Con from 0.00186632 to 0.00186632
Heightened Def Con from 0.00186733 to 0.00186733
Heightened Def Con from 0.00186934 to 0.00186934
Heightened Def Con from 0.00187037 to 0.00187037
Heightened Def Con from 0.00187235 to 0.00187235
Heightened Def Con from 0.00187342 to 0.00187342
Heightened Def Con from 0.00187536 to 0.00187536
Heightened Def Con from 0.00187647 to 0.00187647
Heightened Def Con from 0.00187836 to 0.00187836
Heightened Def Con from 0.00187952 to 0.00187952
Heightened Def Con from 0.00188137 to 0.00188137
Heightened Def Con from 0.00188257 to 0.00188257
Heightened Def Con from 0.00188437 to 0.00188437
Heightened Def Con from 0.00188562 to 0.00188562
Heightened Def Con from 0.00188737 to 0.00188737
Heightened Def Con from 0.00188867 to 0.00188867
Heightened Def Con from 0.00189038 to 0.00189038
Heightened Def Con from 0.00189173 to 0.00189173
Heightened Def Con from 0.00189338 to 0.00189338
Heightened Def Con from 0.00189478 to 0.00189479
Heightened Def Con from 0.00189638 to 0.00189638
Heightened Def Con from 0.00189784 to 0.00189784
Heightened Def Con from 0.00189938 to 0.00189938
Heightened Def Con from 0.0019009 to 0.0019009
Heightened Def Con from 0.00190238 to 0.00190238
Heightened Def Con from 0.00190395 to 0.00190396
Heightened Def Con from 0.00190538 to 0.00190538
Heightened Def Con from 0.00190701 to 0.00190701
Heightened Def Con from 0.00190838 to 0.00190838
Heightened Def Con from 0.00191006 to 0.00191006
Heightened Def Con from 0.00191138 to 0.00191138
Heightened Def Con from 0.00191312 to 0.00191312
Heightened Def Con from 0.00191438 to 0.00191438
Heightened Def Con from 0.00191617 to 0.00191618
Heightened Def Con from 0.00191738 to 0.00191739
Heightened Def Con from 0.00191922 to 0.00191923
Heightened Def Con from 0.00192039 to 0.00192039
Heightened Def Con from 0.00192227 to 0.00192227
Heightened Def Con from 0.00192339 to 0.0019234
Heightened Def Con from 0.00192532 to 0.00192532
Heightened Def Con from 0.0019264 to 0.0019264
Heightened Def Con from 0.00192837 to 0.00192837
Heightened Def Con from 0.00192941 to 0.00192941
Heightened Def Con from 0.00193141 to 0.00193141
Heightened Def Con from 0.00193243 to 0.00193243
Heightened Def Con from 0.00193445 to 0.00193445
Heightened Def Con from 0.00193544 to 0.00193544
Heightened Def Con from 0.00193749 to 0.00193749
Heightened Def Con from 0.00193846 to 0.00193846
Heightened Def Con from 0.00194053 to 0.00194053
Heightened Def Con from 0.00194148 to 0.00194148
Heightened Def Con from 0.00194357 to 0.00194357
Heightened Def Con from 0.0019445 to 0.0019445
Heightened Def Con from 0.0019466 to 0.0019466
Heightened Def Con from 0.00194752 to 0.00194752
Heightened Def Con from 0.00194963 to 0.00194963
Heightened Def Con from 0.00195055 to 0.00195055
Heightened Def Con from 0.00195265 to 0.00195266
Heightened Def Con from 0.00195358 to 0.00195358
Heightened Def Con from 0.00195568 to 0.00195568
Heightened Def Con from 0.00195661 to 0.00195661
Heightened Def Con from 0.0019587 to 0.0019587
Heightened Def Con from 0.00195965 to 0.00195965
Heightened Def Con from 0.00196172 to 0.00196172
Heightened Def Con from 0.00196268 to 0.00196269
Heightened Def Con from 0.00196474 to 0.00196474
Heightened Def Con from 0.00196572 to 0.00196573
Heightened Def Con from 0.00196775 to 0.00196775
Heightened Def Con from 0.00196877 to 0.00196877
Heightened Def Con from 0.00197076 to 0.00197076
Heightened Def Con from 0.00197181 to 0.00197181
Heightened Def Con from 0.00197377 to 0.00197377
Heightened Def Con from 0.00197486 to 0.00197486
Heightened Def Con from 0.00197678 to 0.00197678
Heightened Def Con from 0.00197791 to 0.00197791
Heightened Def Con from 0.00197979 to 0.00197979
Heightened Def Con from 0.00198096 to 0.00198096
Heightened Def Con from 0.00198279 to 0.00198279
Heightened Def Con from 0.00198401 to 0.00198401
Heightened Def Con from 0.00198579 to 0.00198579
Heightened Def Con from 0.00198706 to 0.00198706
Heightened Def Con from 0.0019888 to 0.0019888
Heightened Def Con from 0.00199012 to 0.00199012
Heightened Def Con from 0.0019918 to 0.0019918
Heightened Def Con from 0.00199317 to 0.00199317
Heightened Def Con from 0.0019948 to 0.0019948
Heightened Def Con from 0.00199623 to 0.00199623
Heightened Def Con from 0.00199928 to 0.00199928
Heightened Def Con from 0.0020008 to 0.0020008
Heightened Def Con from 0.00200234 to 0.00200234
Heightened Def Con from 0.0020038 to 0.0020038
Heightened Def Con from 0.0020054 to 0.0020054
Heightened Def Con from 0.00200845 to 0.00200845
Heightened Def Con from 0.0020098 to 0.0020098
Heightened Def Con from 0.00201151 to 0.00201151
Heightened Def Con from 0.0020128 to 0.0020128
Heightened Def Con from 0.00201456 to 0.00201456
Heightened Def Con from 0.00201581 to 0.00201581
Heightened Def Con from 0.00201761 to 0.00201761
Heightened Def Con from 0.00201881 to 0.00201881
Heightened Def Con from 0.00202067 to 0.00202067
Heightened Def Con from 0.00202182 to 0.00202182
Heightened Def Con from 0.00202372 to 0.00202372
Heightened Def Con from 0.00202482 to 0.00202483
Heightened Def Con from 0.00202676 to 0.00202676
Heightened Def Con from 0.00202783 to 0.00202783
Heightened Def Con from 0.00202981 to 0.00202981
Heightened Def Con from 0.00203085 to 0.00203085
Heightened Def Con from 0.00203285 to 0.00203285
Heightened Def Con from 0.00203386 to 0.00203387
Heightened Def Con from 0.00203589 to 0.0020359
Heightened Def Con from 0.00203688 to 0.00203688
Heightened Def Con from 0.00203894 to 0.00203894
Heightened Def Con from 0.0020399 to 0.0020399
Heightened Def Con from 0.00204197 to 0.00204197
Heightened Def Con from 0.00204292 to 0.00204292
Heightened Def Con from 0.00204501 to 0.00204501
Heightened Def Con from 0.00204594 to 0.00204594
Heightened Def Con from 0.00204804 to 0.00204804
Heightened Def Con from 0.00204897 to 0.00204898
Heightened Def Con from 0.00205107 to 0.00205107
Heightened Def Con from 0.002052 to 0.002052
Heightened Def Con from 0.0020541 to 0.0020541
Heightened Def Con from 0.00205503 to 0.00205504
Heightened Def Con from 0.00205712 to 0.00205712
Heightened Def Con from 0.00206014 to 0.00206014
Heightened Def Con from 0.0020611 to 0.0020611
Heightened Def Con from 0.00206316 to 0.00206316
Heightened Def Con from 0.00206414 to 0.00206414
Heightened Def Con from 0.00206618 to 0.00206618
Heightened Def Con from 0.00206719 to 0.00206719
Heightened Def Con from 0.0020692 to 0.0020692
Heightened Def Con from 0.00207023 to 0.00207023
Heightened Def Con from 0.00207221 to 0.00207221
Heightened Def Con from 0.00207328 to 0.00207328
Heightened Def Con from 0.00207522 to 0.00207522
Heightened Def Con from 0.00207633 to 0.00207633
Heightened Def Con from 0.00207823 to 0.00207823
Heightened Def Con from 0.00207938 to 0.00207938
Heightened Def Con from 0.00208123 to 0.00208123
Heightened Def Con from 0.00208243 to 0.00208243
Heightened Def Con from 0.00208423 to 0.00208423
Heightened Def Con from 0.00208548 to 0.00208548
Heightened Def Con from 0.00208724 to 0.00208724
Heightened Def Con from 0.00208853 to 0.00208854
Heightened Def Con from 0.00209024 to 0.00209024
Heightened Def Con from 0.00209159 to 0.00209159
Heightened Def Con from 0.00209464 to 0.00209465
Heightened Def Con from 0.00209624 to 0.00209624
Heightened Def Con from 0.0020977 to 0.0020977
Heightened Def Con from 0.00209924 to 0.00209924
Heightened Def Con from 0.00210075 to 0.00210076
Heightened Def Con from 0.00210224 to 0.00210224
Heightened Def Con from 0.00210381 to 0.00210381
Heightened Def Con from 0.00210524 to 0.00210524
Heightened Def Con from 0.00210687 to 0.00210687
Heightened Def Con from 0.00210824 to 0.00210824
Heightened Def Con from 0.00210992 to 0.00210992
Heightened Def Con from 0.00211124 to 0.00211124
Heightened Def Con from 0.00211298 to 0.00211298
Heightened Def Con from 0.00211424 to 0.00211424
Heightened Def Con from 0.00211603 to 0.00211603
Heightened Def Con from 0.00211725 to 0.00211725
Heightened Def Con from 0.00211908 to 0.00211909
Heightened Def Con from 0.00212025 to 0.00212025
Heightened Def Con from 0.00212213 to 0.00212213
Heightened Def Con from 0.00212326 to 0.00212326
Heightened Def Con from 0.00212518 to 0.00212518
Heightened Def Con from 0.00212627 to 0.00212627
Heightened Def Con from 0.00212823 to 0.00212823
Heightened Def Con from 0.00212928 to 0.00212928
Heightened Def Con from 0.00213127 to 0.00213128
Heightened Def Con from 0.00213229 to 0.00213229
Heightened Def Con from 0.00213431 to 0.00213431
Heightened Def Con from 0.0021353 to 0.0021353
Heightened Def Con from 0.00213735 to 0.00213735
Heightened Def Con from 0.00213832 to 0.00213832
Heightened Def Con from 0.00214039 to 0.00214039
Heightened Def Con from 0.00214134 to 0.00214134
Heightened Def Con from 0.00214343 to 0.00214343
Heightened Def Con from 0.00214436 to 0.00214436
Heightened Def Con from 0.00214646 to 0.00214646
Heightened Def Con from 0.00214738 to 0.00214738
Heightened Def Con from 0.00214949 to 0.00214949
Heightened Def Con from 0.00215041 to 0.00215041
Heightened Def Con from 0.00215252 to 0.00215252
Heightened Def Con from 0.00215344 to 0.00215344
Heightened Def Con from 0.00215554 to 0.00215554
Heightened Def Con from 0.00215647 to 0.00215647
Heightened Def Con from 0.00215856 to 0.00215856
Heightened Def Con from 0.00215951 to 0.00215951
Heightened Def Con from 0.00216158 to 0.00216158
Heightened Def Con from 0.00216255 to 0.00216255
Heightened Def Con from 0.0021646 to 0.0021646
Heightened Def Con from 0.00216559 to 0.00216559
Heightened Def Con from 0.00216761 to 0.00216761
Heightened Def Con from 0.00216863 to 0.00216863
Heightened Def Con from 0.00217063 to 0.00217063
Heightened Def Con from 0.00217167 to 0.00217167
Heightened Def Con from 0.00217364 to 0.00217364
Heightened Def Con from 0.00217472 to 0.00217472
Heightened Def Con from 0.00217664 to 0.00217664
Heightened Def Con from 0.00217777 to 0.00217777
Heightened Def Con from 0.00217965 to 0.00217965
Heightened Def Con from 0.00218082 to 0.00218082
Heightened Def Con from 0.00218265 to 0.00218266
Heightened Def Con from 0.00218387 to 0.00218387
Heightened Def Con from 0.00218566 to 0.00218566
Heightened Def Con from 0.00218692 to 0.00218692
Heightened Def Con from 0.00218866 to 0.00218866
Heightened Def Con from 0.00218998 to 0.00218998
Heightened Def Con from 0.00219166 to 0.00219166
Heightened Def Con from 0.00219303 to 0.00219303
Heightened Def Con from 0.00219466 to 0.00219466
Heightened Def Con from 0.00219609 to 0.00219609
Heightened Def Con from 0.00219766 to 0.00219766
Heightened Def Con from 0.00219914 to 0.00219914
Heightened Def Con from 0.00220066 to 0.00220066
Heightened Def Con from 0.0022022 to 0.0022022
Heightened Def Con from 0.00220366 to 0.00220366
Heightened Def Con from 0.00220526 to 0.00220526
Heightened Def Con from 0.00220831 to 0.00220832
Heightened Def Con from 0.00220966 to 0.00220967
Heightened Def Con from 0.00221137 to 0.00221137
Heightened Def Con from 0.00221267 to 0.00221267
Heightened Def Con from 0.00221442 to 0.00221442
Heightened Def Con from 0.00221567 to 0.00221567
Heightened Def Con from 0.00221747 to 0.00221747
Heightened Def Con from 0.00221867 to 0.00221867
Heightened Def Con from 0.00222052 to 0.00222053
Heightened Def Con from 0.00222168 to 0.00222168
Heightened Def Con from 0.00222357 to 0.00222358
Heightened Def Con from 0.00222469 to 0.00222469
Heightened Def Con from 0.00222662 to 0.00222662
Heightened Def Con from 0.0022277 to 0.0022277
Heightened Def Con from 0.00222967 to 0.00222967
Heightened Def Con from 0.00223271 to 0.00223271
Heightened Def Con from 0.00223372 to 0.00223372
Heightened Def Con from 0.00223576 to 0.00223576
Heightened Def Con from 0.00223674 to 0.00223674
Heightened Def Con from 0.0022388 to 0.0022388
Heightened Def Con from 0.00223976 to 0.00223976
Heightened Def Con from 0.00224183 to 0.00224183
Heightened Def Con from 0.00224278 to 0.00224278
Heightened Def Con from 0.00224487 to 0.00224487
Heightened Def Con from 0.0022458 to 0.0022458
[...]
Heightened Def Con from 0.00364488 to 0.00364488
Heightened Def Con from 0.00364698 to 0.00364698
Heightened Def Con from 0.00364791 to 0.00364792
Heightened Def Con from 0.00365001 to 0.00365001
Heightened Def Con from 0.00365094 to 0.00365094
Heightened Def Con from 0.00365304 to 0.00365304
Heightened Def Con from 0.00365397 to 0.00365397
Heightened Def Con from 0.00365606 to 0.00365606
Heightened Def Con from 0.003657 to 0.003657
Heightened Def Con from 0.00365909 to 0.00365909
Heightened Def Con from 0.00366004 to 0.00366004
Heightened Def Con from 0.00366211 to 0.00366211
Heightened Def Con from 0.00366308 to 0.00366308
Heightened Def Con from 0.00366512 to 0.00366512
Heightened Def Con from 0.00366612 to 0.00366612
Heightened Def Con from 0.00366814 to 0.00366814
Heightened Def Con from 0.00366916 to 0.00366916
Heightened Def Con from 0.00367115 to 0.00367115
Heightened Def Con from 0.00367221 to 0.00367221
Heightened Def Con from 0.00367416 to 0.00367416
Heightened Def Con from 0.00367526 to 0.00367526
Heightened Def Con from 0.00367717 to 0.00367717
Heightened Def Con from 0.00367831 to 0.00367831
Heightened Def Con from 0.00368018 to 0.00368018
Heightened Def Con from 0.00368136 to 0.00368136
Heightened Def Con from 0.00368318 to 0.00368318
Heightened Def Con from 0.00368441 to 0.00368441
Heightened Def Con from 0.00368618 to 0.00368618
Heightened Def Con from 0.00368746 to 0.00368746
Heightened Def Con from 0.00368919 to 0.00368919
Heightened Def Con from 0.00369052 to 0.00369052
Heightened Def Con from 0.00369219 to 0.00369219
Heightened Def Con from 0.00369357 to 0.00369357
Heightened Def Con from 0.00369519 to 0.00369519
Heightened Def Con from 0.00369663 to 0.00369663
Heightened Def Con from 0.00369819 to 0.00369819
Heightened Def Con from 0.00369968 to 0.00369969
Heightened Def Con from 0.00370119 to 0.00370119
Heightened Def Con from 0.00370274 to 0.00370274
Heightened Def Con from 0.00370419 to 0.00370419
Heightened Def Con from 0.0037058 to 0.0037058
Heightened Def Con from 0.00370719 to 0.00370719
Heightened Def Con from 0.00370885 to 0.00370885
Heightened Def Con from 0.00371019 to 0.00371019
Heightened Def Con from 0.00371191 to 0.00371191
Heightened Def Con from 0.00371319 to 0.00371319
Heightened Def Con from 0.00371496 to 0.00371496
Heightened Def Con from 0.0037162 to 0.0037162
Heightened Def Con from 0.00371802 to 0.00371802
Heightened Def Con from 0.00372107 to 0.00372107
Heightened Def Con from 0.00372221 to 0.00372221
Heightened Def Con from 0.00372412 to 0.00372412
Heightened Def Con from 0.00372522 to 0.00372522
Heightened Def Con from 0.00372716 to 0.00372716
Heightened Def Con from 0.00372822 to 0.00372823
Heightened Def Con from 0.00373021 to 0.00373021
Heightened Def Con from 0.00373124 to 0.00373124
Heightened Def Con from 0.00373325 to 0.00373325
Heightened Def Con from 0.00373425 to 0.00373425
Heightened Def Con from 0.00373629 to 0.0037363
Heightened Def Con from 0.00373726 to 0.00373727
Heightened Def Con from 0.00373933 to 0.00373933
Heightened Def Con from 0.00374028 to 0.00374028
Heightened Def Con from 0.00374236 to 0.00374236
Heightened Def Con from 0.0037433 to 0.0037433
Heightened Def Con from 0.0037454 to 0.0037454
Heightened Def Con from 0.00374632 to 0.00374633
Heightened Def Con from 0.00374843 to 0.00374843
Heightened Def Con from 0.00374935 to 0.00374935
Heightened Def Con from 0.00375145 to 0.00375145
Heightened Def Con from 0.00375238 to 0.00375238
Heightened Def Con from 0.00375448 to 0.00375448
Heightened Def Con from 0.00375541 to 0.00375541
Heightened Def Con from 0.0037575 to 0.0037575
Heightened Def Con from 0.00375844 to 0.00375844
Heightened Def Con from 0.00376052 to 0.00376052
Heightened Def Con from 0.00376148 to 0.00376148
Heightened Def Con from 0.00376354 to 0.00376354
Heightened Def Con from 0.00376452 to 0.00376452
Heightened Def Con from 0.00376656 to 0.00376656
Heightened Def Con from 0.00376756 to 0.00376756
Heightened Def Con from 0.00376957 to 0.00376957
Heightened Def Con from 0.0037706 to 0.0037706
Heightened Def Con from 0.00377258 to 0.00377258
Heightened Def Con from 0.00377365 to 0.00377365
Heightened Def Con from 0.00377559 to 0.00377559
Heightened Def Con from 0.0037767 to 0.0037767
Heightened Def Con from 0.00377859 to 0.00377859
Heightened Def Con from 0.00377975 to 0.00377975
Heightened Def Con from 0.0037816 to 0.0037816
Heightened Def Con from 0.0037828 to 0.0037828
Heightened Def Con from 0.0037846 to 0.0037846
Heightened Def Con from 0.00378585 to 0.00378585
Heightened Def Con from 0.00378761 to 0.00378761
Heightened Def Con from 0.00378891 to 0.00378891
Heightened Def Con from 0.00379061 to 0.00379061
Heightened Def Con from 0.00379196 to 0.00379196
Heightened Def Con from 0.00379361 to 0.00379361
Heightened Def Con from 0.00379502 to 0.00379502
Heightened Def Con from 0.00379661 to 0.00379661
Heightened Def Con from 0.00379807 to 0.00379807
Heightened Def Con from 0.00379961 to 0.00379962
Heightened Def Con from 0.00380113 to 0.00380113
Heightened Def Con from 0.00380261 to 0.00380261
Heightened Def Con from 0.00380418 to 0.00380418
Heightened Def Con from 0.00380561 to 0.00380561
Heightened Def Con from 0.00380724 to 0.00380724
Heightened Def Con from 0.00380861 to 0.00380861
Heightened Def Con from 0.0038103 to 0.0038103
Heightened Def Con from 0.00381161 to 0.00381161
Heightened Def Con from 0.00381335 to 0.00381335
Heightened Def Con from 0.00381462 to 0.00381462
Heightened Def Con from 0.0038164 to 0.0038164
Heightened Def Con from 0.00381762 to 0.00381762
Heightened Def Con from 0.00381946 to 0.00381946
Heightened Def Con from 0.00382063 to 0.00382063
Heightened Def Con from 0.00382251 to 0.00382251
Heightened Def Con from 0.00382363 to 0.00382363
Heightened Def Con from 0.00382556 to 0.00382556
Heightened Def Con from 0.00382664 to 0.00382664
Heightened Def Con from 0.0038286 to 0.0038286
Heightened Def Con from 0.00382965 to 0.00382965
Heightened Def Con from 0.00383165 to 0.00383165
Heightened Def Con from 0.00383266 to 0.00383266
Heightened Def Con from 0.00383469 to 0.00383469
Heightened Def Con from 0.00383568 to 0.00383568
Heightened Def Con from 0.00383773 to 0.00383773
Heightened Def Con from 0.0038387 to 0.0038387
Heightened Def Con from 0.00384077 to 0.00384077
Heightened Def Con from 0.00384172 to 0.00384172
Heightened Def Con from 0.0038438 to 0.0038438
Heightened Def Con from 0.00384474 to 0.00384474
Heightened Def Con from 0.00384684 to 0.00384684
Heightened Def Con from 0.00384777 to 0.00384777
Heightened Def Con from 0.00384987 to 0.00384987
Heightened Def Con from 0.0038508 to 0.0038508
Heightened Def Con from 0.0038529 to 0.0038529
Heightened Def Con from 0.00385383 to 0.00385383
Heightened Def Con from 0.00385592 to 0.00385592
Heightened Def Con from 0.00385686 to 0.00385686
Heightened Def Con from 0.00385895 to 0.00385895
Heightened Def Con from 0.0038599 to 0.00385991
Heightened Def Con from 0.00386197 to 0.00386197
Heightened Def Con from 0.00386294 to 0.00386295
Heightened Def Con from 0.00386498 to 0.00386499
Heightened Def Con from 0.00386598 to 0.00386598
Heightened Def Con from 0.003868 to 0.003868
Heightened Def Con from 0.00386902 to 0.00386902
Heightened Def Con from 0.00387101 to 0.00387101
Heightened Def Con from 0.00387207 to 0.00387207
Heightened Def Con from 0.00387402 to 0.00387402
Heightened Def Con from 0.00387512 to 0.00387512
Heightened Def Con from 0.00387703 to 0.00387703
Heightened Def Con from 0.00387817 to 0.00387817
Heightened Def Con from 0.00388004 to 0.00388004
Heightened Def Con from 0.00388122 to 0.00388122
Heightened Def Con from 0.00388304 to 0.00388304
Heightened Def Con from 0.00388427 to 0.00388427
Heightened Def Con from 0.00388605 to 0.00388605
Heightened Def Con from 0.00388732 to 0.00388732
Heightened Def Con from 0.00388905 to 0.00388905
Heightened Def Con from 0.00389038 to 0.00389038
Heightened Def Con from 0.00389205 to 0.00389205
Heightened Def Con from 0.00389343 to 0.00389343
Heightened Def Con from 0.00389505 to 0.00389505
Heightened Def Con from 0.00389649 to 0.00389649
Heightened Def Con from 0.00389805 to 0.00389805
Heightened Def Con from 0.00389955 to 0.00389955
Heightened Def Con from 0.00390105 to 0.00390105
Heightened Def Con from 0.0039026 to 0.0039026
Heightened Def Con from 0.00390405 to 0.00390405
Heightened Def Con from 0.00390566 to 0.00390566
Heightened Def Con from 0.00390705 to 0.00390705
Heightened Def Con from 0.00390871 to 0.00390871
Heightened Def Con from 0.00391005 to 0.00391005
Heightened Def Con from 0.00391176 to 0.00391176
Heightened Def Con from 0.00391305 to 0.00391305
Heightened Def Con from 0.00391482 to 0.00391482
Heightened Def Con from 0.00391606 to 0.00391606
Heightened Def Con from 0.00391906 to 0.00391906
Heightened Def Con from 0.00392092 to 0.00392092
Heightened Def Con from 0.00392207 to 0.00392207
Heightened Def Con from 0.00392397 to 0.00392398
Heightened Def Con from 0.00392702 to 0.00392702
Heightened Def Con from 0.00392808 to 0.00392808
Heightened Def Con from 0.00393007 to 0.00393007
Heightened Def Con from 0.0039311 to 0.0039311
Heightened Def Con from 0.00393311 to 0.00393311
Heightened Def Con from 0.00393411 to 0.00393411
Heightened Def Con from 0.00393615 to 0.00393615
Heightened Def Con from 0.00393712 to 0.00393712
Heightened Def Con from 0.00393919 to 0.00393919
Heightened Def Con from 0.00394014 to 0.00394014
Heightened Def Con from 0.00394222 to 0.00394223
Heightened Def Con from 0.00394316 to 0.00394316
Heightened Def Con from 0.00394526 to 0.00394526
Heightened Def Con from 0.00394619 to 0.00394619
Heightened Def Con from 0.00394829 to 0.00394829
Heightened Def Con from 0.00394921 to 0.00394921
Heightened Def Con from 0.00395132 to 0.00395132
Heightened Def Con from 0.00395224 to 0.00395224
Heightened Def Con from 0.00395434 to 0.00395434
Heightened Def Con from 0.00395527 to 0.00395527
Heightened Def Con from 0.00395737 to 0.00395737
Heightened Def Con from 0.00395831 to 0.00395831
Heightened Def Con from 0.00396038 to 0.00396039
Heightened Def Con from 0.00396134 to 0.00396134
Heightened Def Con from 0.0039634 to 0.0039634
Heightened Def Con from 0.00396642 to 0.00396642
Heightened Def Con from 0.00396742 to 0.00396742
Heightened Def Con from 0.00396943 to 0.00396943
Heightened Def Con from 0.00397047 to 0.00397047
Heightened Def Con from 0.00397244 to 0.00397244
Heightened Def Con from 0.00397351 to 0.00397351
Heightened Def Con from 0.00397545 to 0.00397545
Heightened Def Con from 0.00397656 to 0.00397656
Heightened Def Con from 0.00397961 to 0.00397961
Heightened Def Con from 0.00398147 to 0.00398147
Heightened Def Con from 0.00398266 to 0.00398266
Heightened Def Con from 0.00398447 to 0.00398447
Heightened Def Con from 0.00398572 to 0.00398572
Heightened Def Con from 0.00398747 to 0.00398747
Heightened Def Con from 0.00398877 to 0.00398877
Heightened Def Con from 0.00399048 to 0.00399048
Heightened Def Con from 0.00399183 to 0.00399183
Heightened Def Con from 0.00399348 to 0.00399348
Heightened Def Con from 0.00399488 to 0.00399488
Heightened Def Con from 0.00399648 to 0.00399648
Heightened Def Con from 0.00399794 to 0.00399794
Heightened Def Con from 0.00399948 to 0.00399948
Heightened Def Con from 0.00400099 to 0.00400099
Heightened Def Con from 0.00400405 to 0.00400405
Heightened Def Con from 0.00400548 to 0.00400548
Heightened Def Con from 0.00400711 to 0.00400711
Heightened Def Con from 0.00400848 to 0.00400848
Heightened Def Con from 0.00401016 to 0.00401016
Heightened Def Con from 0.00401148 to 0.00401148
Heightened Def Con from 0.00401322 to 0.00401322
Heightened Def Con from 0.00401448 to 0.00401448
Heightened Def Con from 0.00401627 to 0.00401627
Heightened Def Con from 0.00401749 to 0.00401749
Heightened Def Con from 0.00401932 to 0.00401932
Heightened Def Con from 0.00402049 to 0.00402049
Heightened Def Con from 0.00402237 to 0.00402237
Heightened Def Con from 0.0040235 to 0.0040235
Heightened Def Con from 0.00402542 to 0.00402542
Heightened Def Con from 0.00402651 to 0.00402651
Heightened Def Con from 0.00402847 to 0.00402847
Heightened Def Con from 0.00402952 to 0.00402952
Heightened Def Con from 0.00403151 to 0.00403151
Heightened Def Con from 0.00403253 to 0.00403253
Heightened Def Con from 0.00403456 to 0.00403456
Heightened Def Con from 0.00403555 to 0.00403555
Heightened Def Con from 0.0040376 to 0.0040376
Heightened Def Con from 0.00403857 to 0.00403857
Heightened Def Con from 0.00404064 to 0.00404064
Heightened Def Con from 0.00404159 to 0.00404159
Heightened Def Con from 0.00404367 to 0.00404368
Heightened Def Con from 0.00404461 to 0.00404461
Heightened Def Con from 0.00404671 to 0.00404671
Heightened Def Con from 0.00404764 to 0.00404764
Heightened Def Con from 0.00404974 to 0.00404974
Heightened Def Con from 0.00405067 to 0.00405067
Heightened Def Con from 0.00405277 to 0.00405277
Heightened Def Con from 0.0040537 to 0.0040537
Heightened Def Con from 0.00405579 to 0.00405579
Heightened Def Con from 0.00405673 to 0.00405673
Heightened Def Con from 0.00405882 to 0.00405882
Heightened Def Con from 0.00405977 to 0.00405977
Heightened Def Con from 0.00406184 to 0.00406184
Heightened Def Con from 0.00406281 to 0.00406281
Heightened Def Con from 0.00406485 to 0.00406485
Heightened Def Con from 0.00406585 to 0.00406585
Heightened Def Con from 0.00406787 to 0.00406787
Heightened Def Con from 0.00406889 to 0.00406889
Heightened Def Con from 0.00407088 to 0.00407088
Heightened Def Con from 0.00407194 to 0.00407194
Heightened Def Con from 0.00407389 to 0.00407389
Heightened Def Con from 0.00407498 to 0.00407498
Heightened Def Con from 0.0040769 to 0.0040769
Heightened Def Con from 0.00407803 to 0.00407803
Heightened Def Con from 0.00407991 to 0.00407991
Heightened Def Con from 0.00408108 to 0.00408108
Heightened Def Con from 0.00408291 to 0.00408291
Heightened Def Con from 0.00408414 to 0.00408414
Heightened Def Con from 0.00408592 to 0.00408592
Heightened Def Con from 0.00408719 to 0.00408719
Heightened Def Con from 0.00408892 to 0.00408892
Heightened Def Con from 0.00409024 to 0.00409024
Heightened Def Con from 0.00409192 to 0.00409192
Heightened Def Con from 0.0040933 to 0.0040933
Heightened Def Con from 0.00409492 to 0.00409492
Heightened Def Con from 0.00409636 to 0.00409636
Heightened Def Con from 0.00409792 to 0.00409792
Heightened Def Con from 0.00409941 to 0.00409941
Heightened Def Con from 0.00410092 to 0.00410092
Heightened Def Con from 0.00410247 to 0.00410247
Heightened Def Con from 0.00410392 to 0.00410392
Heightened Def Con from 0.00410552 to 0.00410552
Heightened Def Con from 0.00410692 to 0.00410692
Heightened Def Con from 0.00410858 to 0.00410858
Heightened Def Con from 0.00411163 to 0.00411163
Heightened Def Con from 0.00411292 to 0.00411293
Heightened Def Con from 0.00411469 to 0.00411469
Heightened Def Con from 0.00411593 to 0.00411593
Heightened Def Con from 0.00411774 to 0.00411774
Heightened Def Con from 0.00411893 to 0.00411893
Heightened Def Con from 0.00412079 to 0.00412079
Heightened Def Con from 0.00412194 to 0.00412194
Heightened Def Con from 0.00412384 to 0.00412384
Heightened Def Con from 0.00412495 to 0.00412495
Heightened Def Con from 0.00412689 to 0.00412689
Heightened Def Con from 0.00412795 to 0.00412795
Heightened Def Con from 0.00412994 to 0.00412994
Heightened Def Con from 0.00413097 to 0.00413097
Heightened Def Con from 0.00413298 to 0.00413298
Heightened Def Con from 0.00413398 to 0.00413398
Heightened Def Con from 0.00413602 to 0.00413602
Heightened Def Con from 0.004137 to 0.004137
Heightened Def Con from 0.00413906 to 0.00413906
Heightened Def Con from 0.00414002 to 0.00414002
Heightened Def Con from 0.0041421 to 0.0041421
Heightened Def Con from 0.00414304 to 0.00414304
Heightened Def Con from 0.00414513 to 0.00414513
Heightened Def Con from 0.00414606 to 0.00414606
Heightened Def Con from 0.00414816 to 0.00414816
Heightened Def Con from 0.00414909 to 0.00414909
Heightened Def Con from 0.00415119 to 0.00415119
Heightened Def Con from 0.00415212 to 0.00415212
Heightened Def Con from 0.00415422 to 0.00415422
Heightened Def Con from 0.00415515 to 0.00415515
Heightened Def Con from 0.00415724 to 0.00415724
Heightened Def Con from 0.00415818 to 0.00415818
Heightened Def Con from 0.00416026 to 0.00416026
Heightened Def Con from 0.00416122 to 0.00416122
Heightened Def Con from 0.00416328 to 0.00416328
Heightened Def Con from 0.00416426 to 0.00416426
Heightened Def Con from 0.00416629 to 0.0041663
Heightened Def Con from 0.0041673 to 0.0041673
Heightened Def Con from 0.00416931 to 0.00416931
Heightened Def Con from 0.00417232 to 0.00417232
Heightened Def Con from 0.00417339 to 0.00417339
Heightened Def Con from 0.00417533 to 0.00417533
Heightened Def Con from 0.00417644 to 0.00417644
Heightened Def Con from 0.00417834 to 0.00417834
Heightened Def Con from 0.00417949 to 0.00417949
Heightened Def Con from 0.00418134 to 0.00418134
Heightened Def Con from 0.00418434 to 0.00418435
Heightened Def Con from 0.00418559 to 0.00418559
Heightened Def Con from 0.00418735 to 0.00418735
Heightened Def Con from 0.00418864 to 0.00418864
Heightened Def Con from 0.00419035 to 0.00419035
Heightened Def Con from 0.0041917 to 0.0041917
Heightened Def Con from 0.00419335 to 0.00419335
Heightened Def Con from 0.00419475 to 0.00419475
Heightened Def Con from 0.00419635 to 0.00419635
Heightened Def Con from 0.00419781 to 0.00419781
Heightened Def Con from 0.00419935 to 0.00419935
Heightened Def Con from 0.00420086 to 0.00420086
Heightened Def Con from 0.00420235 to 0.00420235
Heightened Def Con from 0.00420392 to 0.00420392
Heightened Def Con from 0.00420535 to 0.00420535
Heightened Def Con from 0.00420698 to 0.00420698
Heightened Def Con from 0.00420835 to 0.00420835
Heightened Def Con from 0.00421003 to 0.00421003
Heightened Def Con from 0.00421135 to 0.00421136
Heightened Def Con from 0.00421309 to 0.00421309
Heightened Def Con from 0.00421436 to 0.00421436
Heightened Def Con from 0.00421614 to 0.00421614
Heightened Def Con from 0.00421736 to 0.00421736
Heightened Def Con from 0.00421919 to 0.00421919
Heightened Def Con from 0.00422037 to 0.00422037
Heightened Def Con from 0.00422224 to 0.00422225
Heightened Def Con from 0.00422337 to 0.00422337
Heightened Def Con from 0.00422529 to 0.00422529
Heightened Def Con from 0.00422638 to 0.00422638
Heightened Def Con from 0.00422834 to 0.00422834
Heightened Def Con from 0.00422939 to 0.0042294
Heightened Def Con from 0.00423139 to 0.00423139
Heightened Def Con from 0.0042324 to 0.0042324
Heightened Def Con from 0.00423443 to 0.00423443
Heightened Def Con from 0.00423542 to 0.00423542
Heightened Def Con from 0.00423747 to 0.00423747
Heightened Def Con from 0.00423844 to 0.00423844
Heightened Def Con from 0.00424051 to 0.00424051
Heightened Def Con from 0.00424146 to 0.00424146
Heightened Def Con from 0.00424355 to 0.00424355
Heightened Def Con from 0.00424448 to 0.00424448
Heightened Def Con from 0.00424658 to 0.00424658
Heightened Def Con from 0.00424751 to 0.00424751
Heightened Def Con from 0.00424961 to 0.00424961
Heightened Def Con from 0.00425054 to 0.00425054
Heightened Def Con from 0.00425264 to 0.00425264
Heightened Def Con from 0.00425357 to 0.00425357
Heightened Def Con from 0.00425567 to 0.00425567
Heightened Def Con from 0.0042566 to 0.00425661
Heightened Def Con from 0.00425869 to 0.00425869
Heightened Def Con from 0.00425964 to 0.00425964
Heightened Def Con from 0.00426171 to 0.00426171
Heightened Def Con from 0.00426179 to 0.00426179

Date: Sat Oct 05 14:09:39 2019
Total elapsed time: 131.799 seconds.

tnom = 27
temp = 27
method = modified trap
totiter = 4710726
traniter = 4623987
tranpoints = 1164844
accept = 823717
rejected = 344483
matrix size = 101
fillins = 138
solver = Normal
Thread vector: 23.2/15.6[3] 6.0/4.7[3] 4.8/5.4[1] 0.4/1.4[1]  2592/500
Matrix Compiler1: 13.41 KB object code size  2.7/1.4/[0.7]
Matrix Compiler2: 11.49 KB object code size  2.0/1.9/[0.6]

