Circuit: * D:\Usuário\Documents\GitHub\EEL7303\Laboratorios\Projeto - Amplificador Classe D em Ponte H\Simulação\V1\AmplificadorClasseD-V1.asc

WARNING: Less than two connections to node NC_01.  This node is used by RLOAD.
Direct Newton iteration failed to find .op point.  (Use ".option noopiter" to skip.)
Starting Gmin stepping
Gmin = 10
Gmin = 1.07374
vernier = 0.5
vernier = 0.25
vernier = 0.125
vernier = 0.0625
Gmin = 1.08884
vernier = 0.03125
vernier = 0.015625
Gmin = 1.03122
vernier = 0.0078125
vernier = 0.0104167
vernier = 0.00520833
Gmin = 1.01988
vernier = 0.00260417
vernier = 0.00347222
Gmin = 1.01305
vernier = 0.00173611
vernier = 0.00231481
vernier = 0.00115741
Gmin = 1.01085
vernier = 0.00154321
vernier = 0.000771604
Gmin = 1.00871
vernier = 0.00102881
vernier = 0.000514403
Gmin = 1.00715
vernier = 0.00068587
vernier = 0.000514403
Gmin = 1.0059
vernier = 0.00068587
vernier = 0.000514402
Gmin = 0
Gmin stepping failed

Starting source stepping with srcstepmethod=0
Source Step = 3.0303%
Source Step = 12.1271%
Source Step = 12.1567%
Source Step = 12.1863%
Source Step = 12.2159%
Source Step = 12.2455%
Source Step = 12.2751%
vernier = 0.00146484
Source Step = 12.315%
Source Step = 12.3594%
Source Step = 12.4038%
Source Step = 12.4482%
Source Step = 12.4926%
vernier = 0.00219727
Source Step = 12.5503%
Source Step = 12.6169%
Source Step = 12.6835%
Source Step = 12.7501%
Source Step = 12.8166%
vernier = 0.0032959
Source Step = 12.8999%
Source Step = 12.9997%
Source Step = 13.0996%
Source Step = 13.1995%
Source Step = 13.2994%
vernier = 0.00494385
Source Step = 13.4192%
Source Step = 13.569%
Source Step = 13.7189%
Source Step = 13.8687%
Source Step = 14.0185%
vernier = 0.00741577
Source Step = 14.1908%
Source Step = 14.4155%
Source Step = 14.6402%
Source Step = 14.8649%
Source Step = 15.0896%
vernier = 0.0111237
Source Step = 15.3368%
Source Step = 15.6739%
Source Step = 16.011%
Source Step = 16.3481%
Source Step = 16.6852%
vernier = 0.0166855
Source Step = 17.0391%
Source Step = 17.5447%
Source Step = 18.0503%
Source Step = 18.556%
Source Step = 19.0616%
Source Step = 19.5672%
vernier = 0.0250282
Source Step = 20.3256%
Source Step = 21.0841%
Source Step = 21.8425%
Source Step = 22.6009%
Source Step = 23.3594%
vernier = 0.0375423
Source Step = 24.4591%
Source Step = 25.5967%
Source Step = 26.7344%
Source Step = 27.872%
Source Step = 29.0097%
vernier = 0.0563135
Source Step = 30.6024%
Source Step = 32.3088%
Source Step = 34.0153%
Source Step = 35.7218%
Source Step = 37.4283%
vernier = 0.0844703
Source Step = 39.732%
Source Step = 42.2917%
Source Step = 44.8514%
Source Step = 47.4111%
Source Step = 49.9708%
vernier = 0.126705
Source Step = 53.2984%
Source Step = 57.138%
Source Step = 60.9775%
Source Step = 64.8171%
Source Step = 68.6567%
vernier = 0.190058
Source Step = 73.4561%
Source Step = 79.2154%
Source Step = 84.9748%
Source Step = 90.7341%
Source Step = 96.4935%
vernier = 0.285087
Source Step = 100%
Source Step = 100%
Source stepping succeeded in finding the operating point.

Heightened Def Con from 1.08816e-005 to 1.08822e-005
Heightened Def Con from 1.63632e-005 to 1.63637e-005
Heightened Def Con from 2.48385e-005 to 2.4839e-005
Heightened Def Con from 3.28598e-005 to 3.28604e-005
Heightened Def Con from 3.60108e-005 to 3.60113e-005
Heightened Def Con from 3.83798e-005 to 3.83805e-005
Heightened Def Con from 4.71418e-005 to 4.71423e-005
Heightened Def Con from 5.26896e-005 to 5.26901e-005
Heightened Def Con from 6.61694e-005 to 6.617e-005
Heightened Def Con from 7.47526e-005 to 7.47531e-005
Heightened Def Con from 8.02466e-005 to 8.02471e-005
Heightened Def Con from 8.5727e-005 to 8.57275e-005
Heightened Def Con from 9.66745e-005 to 9.6675e-005
Heightened Def Con from 0.000102147 to 0.000102148
Heightened Def Con from 0.000107619 to 0.000107619
Heightened Def Con from 0.000111092 to 0.000111093
Heightened Def Con from 0.000113092 to 0.000113093
Heightened Def Con from 0.000118575 to 0.000118575
Heightened Def Con from 0.000122326 to 0.000122326
Heightened Def Con from 0.000133526 to 0.000133526
Heightened Def Con from 0.000140575 to 0.000140575
Heightened Def Con from 0.000144678 to 0.000144679
Heightened Def Con from 0.000150232 to 0.000150233
Heightened Def Con from 0.000151643 to 0.000151643
Heightened Def Con from 0.000168359 to 0.000168359
Heightened Def Con from 0.000179563 to 0.000179564
Heightened Def Con from 0.000183337 to 0.000183337
Heightened Def Con from 0.000185177 to 0.000185178
Heightened Def Con from 0.000188822 to 0.000188822
Heightened Def Con from 0.000190796 to 0.000190796
Heightened Def Con from 0.000194305 to 0.000194305
Heightened Def Con from 0.000196419 to 0.00019642
Heightened Def Con from 0.000199782 to 0.000199783
Heightened Def Con from 0.000202035 to 0.000202036
Heightened Def Con from 0.000207657 to 0.000207657
Heightened Def Con from 0.000213274 to 0.00021328
Heightened Def Con from 0.000224491 to 0.000224491
Heightened Def Con from 0.000230088 to 0.000230089
Heightened Def Con from 0.000232726 to 0.000232727
Heightened Def Con from 0.000235673 to 0.000235673
Heightened Def Con from 0.000238246 to 0.000238247
Heightened Def Con from 0.000241246 to 0.000241247
Heightened Def Con from 0.000246803 to 0.000246803
Heightened Def Con from 0.000249319 to 0.00024932
Heightened Def Con from 0.000257885 to 0.000257886
Heightened Def Con from 0.000263402 to 0.000263403
Heightened Def Con from 0.000268914 to 0.000268915
Heightened Def Con from 0.000271617 to 0.000271618
Heightened Def Con from 0.000277219 to 0.000277219
Heightened Def Con from 0.000279901 to 0.000279902
Heightened Def Con from 0.000285385 to 0.000285386
Heightened Def Con from 0.000290866 to 0.000290866
Heightened Def Con from 0.000296337 to 0.000296337
Heightened Def Con from 0.000299695 to 0.000299695
Heightened Def Con from 0.000301807 to 0.000301807
Heightened Def Con from 0.000310944 to 0.000310945
Heightened Def Con from 0.000322176 to 0.000322177
Heightened Def Con from 0.000323713 to 0.000323714
Heightened Def Con from 0.000329206 to 0.000329207
Heightened Def Con from 0.000333376 to 0.000333377
Heightened Def Con from 0.000340223 to 0.000340223
Heightened Def Con from 0.000355629 to 0.000355629
Heightened Def Con from 0.00036242 to 0.00036242
Heightened Def Con from 0.000366685 to 0.000366686
Heightened Def Con from 0.000368007 to 0.000368008
Heightened Def Con from 0.000372195 to 0.000372196
Heightened Def Con from 0.000373605 to 0.000373606
Heightened Def Con from 0.000383189 to 0.00038319
Heightened Def Con from 0.00038483 to 0.00038483
Heightened Def Con from 0.000394158 to 0.000394158
Heightened Def Con from 0.000396075 to 0.000396075
Heightened Def Con from 0.000399637 to 0.000399638
Heightened Def Con from 0.000401698 to 0.000401699
Heightened Def Con from 0.000412943 to 0.000412943
Heightened Def Con from 0.000416087 to 0.000416087
Heightened Def Con from 0.000429759 to 0.00042976
Heightened Def Con from 0.000435341 to 0.000435342
Heightened Def Con from 0.0004381 to 0.0004381
Heightened Def Con from 0.000440913 to 0.000440914
Heightened Def Con from 0.000454733 to 0.000454733
Heightened Def Con from 0.000457558 to 0.000457558
Heightened Def Con from 0.000465878 to 0.000465878
Heightened Def Con from 0.000468588 to 0.000468588
Heightened Def Con from 0.000471468 to 0.000471469
Heightened Def Con from 0.000474088 to 0.000474088
Heightened Def Con from 0.000479576 to 0.000479577
Heightened Def Con from 0.000482681 to 0.000482681
Heightened Def Con from 0.000490539 to 0.00049054
Heightened Def Con from 0.00049601 to 0.00049601
Heightened Def Con from 0.000499544 to 0.000499544
Heightened Def Con from 0.00050148 to 0.000501481
Heightened Def Con from 0.000517901 to 0.000517902
Heightened Def Con from 0.000523383 to 0.000523384
Heightened Def Con from 0.000528873 to 0.000528874
Heightened Def Con from 0.000533229 to 0.00053323
Heightened Def Con from 0.000539887 to 0.000539887
Heightened Def Con from 0.000556519 to 0.00055652
Heightened Def Con from 0.000562094 to 0.000562094
Heightened Def Con from 0.000567682 to 0.000567682
Heightened Def Con from 0.000573283 to 0.000573284
Heightened Def Con from 0.000577565 to 0.000577566
Heightened Def Con from 0.000578895 to 0.000578896
Heightened Def Con from 0.000583055 to 0.000583056
Heightened Def Con from 0.000588542 to 0.000588542
Heightened Def Con from 0.000590133 to 0.000590134
Heightened Def Con from 0.00059576 to 0.000595761
Heightened Def Con from 0.000599505 to 0.000599506
Heightened Def Con from 0.000618246 to 0.000618246
Heightened Def Con from 0.000621442 to 0.000621443
Heightened Def Con from 0.000623853 to 0.000623853
Heightened Def Con from 0.000626942 to 0.000626943
Heightened Def Con from 0.00063245 to 0.000632451
Heightened Def Con from 0.0006435 to 0.000643501
Heightened Def Con from 0.000651721 to 0.000651722
Heightened Def Con from 0.000668293 to 0.000668294
Heightened Def Con from 0.000673795 to 0.000673796
Heightened Def Con from 0.000676942 to 0.000676942
Heightened Def Con from 0.000679286 to 0.000679287
Heightened Def Con from 0.00068477 to 0.000684771
Heightened Def Con from 0.000688168 to 0.000688169
Heightened Def Con from 0.000690248 to 0.000690249
Heightened Def Con from 0.000695722 to 0.000695722
Heightened Def Con from 0.000701193 to 0.000701193
Heightened Def Con from 0.000706661 to 0.000706662
Heightened Def Con from 0.000712132 to 0.000712132
Heightened Def Con from 0.000717606 to 0.000717606
Heightened Def Con from 0.000727506 to 0.000727507
Heightened Def Con from 0.000728575 to 0.000728575
Heightened Def Con from 0.000739577 to 0.000739577
Heightened Def Con from 0.00074982 to 0.000749821
Heightened Def Con from 0.000755367 to 0.000755368
Heightened Def Con from 0.000761783 to 0.000761784
Heightened Def Con from 0.000766428 to 0.000766428
Heightened Def Con from 0.000767378 to 0.000767378
Heightened Def Con from 0.000778596 to 0.000778597
Heightened Def Con from 0.000782936 to 0.000782936
Heightened Def Con from 0.000789844 to 0.000789845
Heightened Def Con from 0.000795472 to 0.000795473
Heightened Def Con from 0.000801098 to 0.000801099
Heightened Def Con from 0.000812341 to 0.000812342
Heightened Def Con from 0.000815825 to 0.000815826
Heightened Def Con from 0.000821317 to 0.000821318
Heightened Def Con from 0.000823567 to 0.000823567
Heightened Def Con from 0.000832324 to 0.000832324
Heightened Def Con from 0.000840331 to 0.000840331
Heightened Def Con from 0.000843374 to 0.000843374
Heightened Def Con from 0.000845894 to 0.000845894
Heightened Def Con from 0.000848917 to 0.000848918
Heightened Def Con from 0.000851441 to 0.000851442
Heightened Def Con from 0.000862503 to 0.000862504
Heightened Def Con from 0.000865619 to 0.00086562
Heightened Def Con from 0.00087352 to 0.00087352
Heightened Def Con from 0.000884496 to 0.000884496
Heightened Def Con from 0.000893665 to 0.000893665
Heightened Def Con from 0.000895447 to 0.000895447
Heightened Def Con from 0.000904918 to 0.000904927
Heightened Def Con from 0.000911854 to 0.000911854
Heightened Def Con from 0.000917324 to 0.000917324
Heightened Def Con from 0.000932975 to 0.000932976
Heightened Def Con from 0.000933773 to 0.000933774
Heightened Def Con from 0.000944137 to 0.000944138
Heightened Def Con from 0.0009448 to 0.000944801
Heightened Def Con from 0.000950338 to 0.000950339
Heightened Def Con from 0.000961477 to 0.000961477
Heightened Def Con from 0.000966302 to 0.000966302
Heightened Def Con from 0.000967076 to 0.000967076
Heightened Def Con from 0.000971816 to 0.000971816
Heightened Def Con from 0.000972688 to 0.000972689
Heightened Def Con from 0.000978306 to 0.000978307
Heightened Def Con from 0.000983927 to 0.000983928
Heightened Def Con from 0.000989555 to 0.000989556
Heightened Def Con from 0.000995186 to 0.000995186

Date: Mon Sep 30 09:10:22 2019
Total elapsed time: 9.418 seconds.

tnom = 27
temp = 27
method = modified trap
totiter = 454786
traniter = 444492
tranpoints = 112960
accept = 82502
rejected = 30630
matrix size = 118
fillins = 127
solver = Normal
Thread vector: 9.9/6.4[2] 3.6/3.5[1] 2.1/3.3[1] 0.4/0.9[1]  2592/500
Matrix Compiler1: 13.11 KB object code size  2.1/1.2/[0.6]
Matrix Compiler2: 12.76 KB object code size  1.2/1.4/[0.6]

