Stray ".ends" card: .ends
Stray ".ends" card: .ends
Circuit: * D:\Usuário\Documents\GitHub\EEL7303\Laboratorios\Projeto - Amplificador Classe D em Ponte H\Simulação\V1.1.0\AmplificadorClasseD-V1.asc

WARNING: Node N017 is floating.

WARNING: Less than two connections to node N017.  This node is used by M10.
Warning: Pd = 0 is less than W.
Warning: Ps = 0 is less than W.
Warning: Pd = 0 is less than W.
Warning: Ps = 0 is less than W.
Warning: Pd = 0 is less than W.
Warning: Ps = 0 is less than W.
Warning: Pd = 0 is less than W.
Warning: Ps = 0 is less than W.
Warning: Pd = 0 is less than W.
Warning: Ps = 0 is less than W.
Warning: Pd = 0 is less than W.
Warning: Ps = 0 is less than W.
Direct Newton iteration failed to find .op point.  (Use ".option noopiter" to skip.)
Starting Gmin stepping
Gmin = 10
Gmin = 1.07374
vernier = 0.5
vernier = 0.25
vernier = 0.125
vernier = 0.0625
Gmin = 1.08884
vernier = 0.03125
vernier = 0.015625
Gmin = 1.03122
vernier = 0.0078125
vernier = 0.0104167
vernier = 0.00520833
Gmin = 1.01988
vernier = 0.00260417
vernier = 0.00347222
Gmin = 1.01305
vernier = 0.00173611
vernier = 0.00231481
vernier = 0.00115741
Gmin = 1.01085
vernier = 0.00154321
vernier = 0.000771604
Gmin = 1.00871
vernier = 0.00102881
vernier = 0.000514403
Gmin = 1.00715
vernier = 0.00068587
vernier = 0.000514403
Gmin = 1.0059
vernier = 0.00068587
vernier = 0.000514402
Gmin = 0
Gmin stepping failed

Starting source stepping with srcstepmethod=0
Source Step = 3.0303%
Source Step = 12.3106%
Source Step = 12.7841%
Source Step = 13.2576%
Source Step = 13.7311%
Source Step = 14.2045%
vernier = 0.0234375
Source Step = 14.7491%
Source Step = 15.4593%
Source Step = 16.1695%
Source Step = 16.8797%
Source Step = 17.59%
vernier = 0.0351563
Source Step = 18.3712%
Source Step = 19.4366%
Source Step = 20.5019%
Source Step = 21.5672%
Source Step = 22.6326%
vernier = 0.0527344
Source Step = 23.7512%
Source Step = 25.3492%
Source Step = 26.9472%
Source Step = 28.5452%
Source Step = 30.1432%
Source Step = 31.7412%
vernier = 0.0791016
Source Step = 34.1383%
Source Step = 36.5353%
Source Step = 38.9323%
Source Step = 41.3293%
Source Step = 43.7263%
vernier = 0.118652
Source Step = 47.202%
Source Step = 50.7975%
Source Step = 54.3931%
Source Step = 57.9886%
Source Step = 61.5841%
vernier = 0.177979
Source Step = 66.6178%
Source Step = 72.0111%
Source Step = 77.4044%
Source Step = 82.7977%
Source Step = 88.191%
vernier = 0.266968
Source Step = 95.4719%
Source Step = 99.972%
Source Step = 99.0162%
Source Step = 99.0478%
Source Step = 99.0794%
Source Step = 99.111%
Source Step = 99.1426%
vernier = 0.00156426
Source Step = 99.1821%
Source Step = 99.2295%
Source Step = 99.2769%
Source Step = 99.3243%
Source Step = 99.3717%
vernier = 0.0023464
Source Step = 99.4286%
Source Step = 99.4997%
Source Step = 99.5708%
Source Step = 99.6419%
Source Step = 99.713%
vernier = 0.00351959
Source Step = 99.7948%
Source Step = 99.9014%
Source Step = 100%
vernier = 0.000879899
Source Step = 99.0241%
Source Step = 99.0507%
Source Step = 99.0774%
Source Step = 99.1041%
Source Step = 99.1307%
vernier = 0.00131985
Source Step = 99.1694%
Source Step = 99.2094%
Source Step = 99.2494%
Source Step = 99.2894%
Source Step = 99.3294%
vernier = 0.00197977
Source Step = 99.3854%
Source Step = 99.4454%
Source Step = 99.5054%
Source Step = 99.5654%
Source Step = 99.6253%
vernier = 0.00296966
Source Step = 99.7063%
Source Step = 99.7963%
Source Step = 99.8863%
Source Step = 99.9763%
Source Step = 100%
Source Step = 100%
Source Step = 100%
Source stepping succeeded in finding the operating point.

Heightened Def Con from 3.36918e-006 to 3.37043e-006
Heightened Def Con from 5.39048e-006 to 5.39748e-006
Heightened Def Con from 7.60506e-006 to 7.60631e-006
Heightened Def Con from 9.54955e-006 to 9.55068e-006
Heightened Def Con from 1.18365e-005 to 1.1838e-005
Heightened Def Con from 2.03006e-005 to 2.03021e-005
Heightened Def Con from 2.20395e-005 to 2.20407e-005
Heightened Def Con from 2.62093e-005 to 2.62104e-005
Heightened Def Con from 2.87532e-005 to 2.87545e-005
Heightened Def Con from 3.03831e-005 to 3.03901e-005
Heightened Def Con from 3.2973e-005 to 3.29745e-005
Heightened Def Con from 3.45613e-005 to 3.45624e-005
Heightened Def Con from 3.71892e-005 to 3.71907e-005
Heightened Def Con from 3.87418e-005 to 3.87429e-005
Heightened Def Con from 4.13982e-005 to 4.13995e-005
Heightened Def Con from 4.56049e-005 to 4.56119e-005
Heightened Def Con from 4.71214e-005 to 4.71226e-005
Heightened Def Con from 4.98057e-005 to 4.9807e-005
Heightened Def Con from 5.55191e-005 to 5.55203e-005
Heightened Def Con from 5.81905e-005 to 5.81918e-005
Heightened Def Con from 5.97257e-005 to 5.97269e-005
Heightened Def Con from 6.23759e-005 to 6.23774e-005
Heightened Def Con from 6.39367e-005 to 6.39375e-005
Heightened Def Con from 6.65557e-005 to 6.65572e-005
Heightened Def Con from 6.81532e-005 to 6.81602e-005
Heightened Def Con from 7.2373e-005 to 7.23742e-005
Heightened Def Con from 7.49027e-005 to 7.49039e-005
Heightened Def Con from 7.65978e-005 to 7.6599e-005
Heightened Def Con from 7.9072e-005 to 7.90735e-005
Heightened Def Con from 8.08262e-005 to 8.08274e-005
Heightened Def Con from 8.32374e-005 to 8.32387e-005
Heightened Def Con from 8.5058e-005 to 8.50591e-005
Heightened Def Con from 8.74008e-005 to 8.74023e-005
Heightened Def Con from 8.92925e-005 to 8.92936e-005
Heightened Def Con from 9.15634e-005 to 9.15649e-005
Heightened Def Con from 9.35278e-005 to 9.35348e-005
Heightened Def Con from 9.57238e-005 to 9.57308e-005
Heightened Def Con from 9.98827e-005 to 9.98839e-005
Heightened Def Con from 0.000102002 to 0.000102009
Heightened Def Con from 0.000104042 to 0.000104049
Heightened Def Con from 0.000106239 to 0.000106246
Heightened Def Con from 0.000108203 to 0.000108204
Heightened Def Con from 0.000114707 to 0.000114708
Heightened Def Con from 0.000116527 to 0.000116528
Heightened Def Con from 0.00011894 to 0.000118947
Heightened Def Con from 0.000124862 to 0.000124863
Heightened Def Con from 0.000127395 to 0.000127396
Heightened Def Con from 0.000129032 to 0.000129034
Heightened Def Con from 0.000137388 to 0.000137395
Heightened Def Con from 0.000140042 to 0.000140049
Heightened Def Con from 0.000141573 to 0.00014158
Heightened Def Con from 0.00014425 to 0.000144251
Heightened Def Con from 0.000145763 to 0.000145764
Heightened Def Con from 0.000149958 to 0.000149959
Heightened Def Con from 0.000152649 to 0.00015265
Heightened Def Con from 0.00015684 to 0.000156841
Heightened Def Con from 0.000158364 to 0.000158371
Heightened Def Con from 0.000161028 to 0.000161029
Heightened Def Con from 0.000162574 to 0.000162576
Heightened Def Con from 0.000165209 to 0.00016521
Heightened Def Con from 0.000166789 to 0.000166796
Heightened Def Con from 0.000169388 to 0.000169395
Heightened Def Con from 0.000173561 to 0.000173562
Heightened Def Con from 0.00017773 to 0.000177731
Heightened Def Con from 0.00017946 to 0.000179461
Heightened Def Con from 0.000181898 to 0.000181899
Heightened Def Con from 0.00018369 to 0.000183691
Heightened Def Con from 0.000186061 to 0.000186062
Heightened Def Con from 0.000190224 to 0.000190231
Heightened Def Con from 0.000194384 to 0.000194385
Heightened Def Con from 0.000196395 to 0.000196396
Heightened Def Con from 0.000200631 to 0.000200633
Heightened Def Con from 0.000202702 to 0.000202703
Heightened Def Con from 0.000204867 to 0.000204874
Heightened Def Con from 0.000206861 to 0.000206868
Heightened Def Con from 0.000209102 to 0.000209104
Heightened Def Con from 0.000211022 to 0.000211029
Heightened Def Con from 0.000213335 to 0.000213336
Heightened Def Con from 0.000215181 to 0.000215188
Heightened Def Con from 0.000217567 to 0.000217568
Heightened Def Con from 0.000219346 to 0.000219353
Heightened Def Con from 0.000223514 to 0.000223521
Heightened Def Con from 0.000230246 to 0.000230247
Heightened Def Con from 0.000231859 to 0.000231861
Heightened Def Con from 0.000234464 to 0.000234465
Heightened Def Con from 0.000236039 to 0.00023604
Heightened Def Con from 0.000238678 to 0.00023868
Heightened Def Con from 0.000242886 to 0.000242887
Heightened Def Con from 0.00024441 to 0.000244411
Heightened Def Con from 0.00024709 to 0.000247091
Heightened Def Con from 0.000248604 to 0.000248605
Heightened Def Con from 0.000251289 to 0.00025129
Heightened Def Con from 0.000257006 to 0.000257007
Heightened Def Con from 0.000259671 to 0.000259673
Heightened Def Con from 0.000261216 to 0.000261217
Heightened Def Con from 0.000263855 to 0.000263857
Heightened Def Con from 0.000265429 to 0.000265436
Heightened Def Con from 0.000268034 to 0.000268041
Heightened Def Con from 0.000272208 to 0.000272209
Heightened Def Con from 0.000273868 to 0.000273869
Heightened Def Con from 0.000276379 to 0.000276381
Heightened Def Con from 0.000278094 to 0.000278096
Heightened Def Con from 0.000280547 to 0.000280548
Heightened Def Con from 0.000282324 to 0.000282331
Heightened Def Con from 0.000284711 to 0.000284713
Heightened Def Con from 0.000286557 to 0.000286564
Heightened Def Con from 0.000288874 to 0.000288876
Heightened Def Con from 0.000293036 to 0.000293037
Heightened Def Con from 0.000299264 to 0.000299265
Heightened Def Con from 0.000301355 to 0.000301362
Heightened Def Con from 0.000303501 to 0.000303502
Heightened Def Con from 0.000305514 to 0.000305516
Heightened Def Con from 0.000307738 to 0.000307745
Heightened Def Con from 0.000316206 to 0.000316207
Heightened Def Con from 0.000318001 to 0.000318008
Heightened Def Con from 0.000322169 to 0.000322176
Heightened Def Con from 0.000324666 to 0.000324673
Heightened Def Con from 0.000326339 to 0.00032634
Heightened Def Con from 0.00032889 to 0.000328897
Heightened Def Con from 0.000330513 to 0.00033052
Heightened Def Con from 0.00033311 to 0.000333117
Heightened Def Con from 0.00033469 to 0.000334691
Heightened Def Con from 0.000337326 to 0.000337333
Heightened Def Con from 0.000341537 to 0.000341538
Heightened Def Con from 0.00034306 to 0.000343062
Heightened Def Con from 0.000345743 to 0.000345745
Heightened Def Con from 0.000355651 to 0.000355652
Heightened Def Con from 0.000358328 to 0.000358329
Heightened Def Con from 0.000359859 to 0.00035986
Heightened Def Con from 0.000362512 to 0.000362513
Heightened Def Con from 0.000364069 to 0.00036407
Heightened Def Con from 0.000366693 to 0.000366694
Heightened Def Con from 0.000368286 to 0.000368293
Heightened Def Con from 0.000372507 to 0.000372508
Heightened Def Con from 0.000375042 to 0.000375049
Heightened Def Con from 0.000376733 to 0.000376734
Heightened Def Con from 0.000379211 to 0.000379218
Heightened Def Con from 0.00038096 to 0.000380967
Heightened Def Con from 0.000387539 to 0.00038754
Heightened Def Con from 0.000389424 to 0.000389426
Heightened Def Con from 0.000391699 to 0.0003917
Heightened Def Con from 0.00039366 to 0.000393662
Heightened Def Con from 0.000408338 to 0.000408339
Heightened Def Con from 0.000410607 to 0.000410614
Heightened Def Con from 0.0004125 to 0.000412502
Heightened Def Con from 0.000414841 to 0.000414842
Heightened Def Con from 0.000416664 to 0.000416671
Heightened Def Con from 0.000419073 to 0.000419075
Heightened Def Con from 0.00042083 to 0.000420831
Heightened Def Con from 0.000424999 to 0.000425
Heightened Def Con from 0.000427528 to 0.000427529
Heightened Def Con from 0.000429172 to 0.000429179
Heightened Def Con from 0.000433348 to 0.000433349
Heightened Def Con from 0.000435966 to 0.000435967
Heightened Def Con from 0.000437529 to 0.00043753
Heightened Def Con from 0.000440178 to 0.000440179
Heightened Def Con from 0.000441714 to 0.000441715
Heightened Def Con from 0.000444384 to 0.000444386
Heightened Def Con from 0.0004501 to 0.000450101
Heightened Def Con from 0.000454301 to 0.000454302
Heightened Def Con from 0.000456976 to 0.000456978
Heightened Def Con from 0.000458506 to 0.000458507
Heightened Def Con from 0.000462717 to 0.000462718
Heightened Def Con from 0.000466932 to 0.000466939
Heightened Def Con from 0.000471151 to 0.000471158
Heightened Def Con from 0.000473696 to 0.000473698
Heightened Def Con from 0.000477866 to 0.000477868
Heightened Def Con from 0.000479602 to 0.000479609
Heightened Def Con from 0.000482032 to 0.000482033
Heightened Def Con from 0.000483833 to 0.000483834
Heightened Def Con from 0.000486196 to 0.000486197
Heightened Def Con from 0.000488066 to 0.000488073
Heightened Def Con from 0.000490357 to 0.000490359
Heightened Def Con from 0.000492301 to 0.000492308
Heightened Def Con from 0.000494514 to 0.000494515
Heightened Def Con from 0.000498674 to 0.000498675
Heightened Def Con from 0.00050077 to 0.000500771
Heightened Def Con from 0.000505006 to 0.000505013
Heightened Def Con from 0.000509242 to 0.000509243
Heightened Def Con from 0.000513477 to 0.000513478
Heightened Def Con from 0.000515314 to 0.000515316
Heightened Def Con from 0.000517708 to 0.000517709
Heightened Def Con from 0.000519479 to 0.000519486
Heightened Def Con from 0.000523647 to 0.000523649
Heightened Def Con from 0.000526164 to 0.000526165
Heightened Def Con from 0.000536172 to 0.000536174
Heightened Def Con from 0.000538819 to 0.00053882
Heightened Def Con from 0.000543028 to 0.000543035
Heightened Def Con from 0.000544546 to 0.000544553
Heightened Def Con from 0.000547232 to 0.000547239
Heightened Def Con from 0.00055143 to 0.000551437
Heightened Def Con from 0.000552938 to 0.000552939
Heightened Def Con from 0.000555624 to 0.000555631
Heightened Def Con from 0.000557142 to 0.000557144
Heightened Def Con from 0.000559813 to 0.00055982
Heightened Def Con from 0.000563997 to 0.000564004
Heightened Def Con from 0.000565565 to 0.000565572
Heightened Def Con from 0.000568176 to 0.000568183
Heightened Def Con from 0.000569784 to 0.000569791
Heightened Def Con from 0.00057235 to 0.000572357
Heightened Def Con from 0.000574004 to 0.000574006
Heightened Def Con from 0.00057652 to 0.000576527
Heightened Def Con from 0.000578232 to 0.000578234
Heightened Def Con from 0.000580688 to 0.000580695
Heightened Def Con from 0.000582462 to 0.000582463
Heightened Def Con from 0.000584853 to 0.000584854
Heightened Def Con from 0.000586695 to 0.000586696
Heightened Def Con from 0.000590928 to 0.00059093
Heightened Def Con from 0.000595164 to 0.000595166
Heightened Def Con from 0.000597335 to 0.000597342
Heightened Def Con from 0.000599401 to 0.000599402
Heightened Def Con from 0.000601495 to 0.000601496
Heightened Def Con from 0.000603638 to 0.000603639
Heightened Def Con from 0.000605654 to 0.000605655
Heightened Def Con from 0.000607871 to 0.000607873
Heightened Def Con from 0.000609813 to 0.000609814
Heightened Def Con from 0.000612107 to 0.000612109
Heightened Def Con from 0.000613975 to 0.000613976
Heightened Def Con from 0.000616339 to 0.000616341
Heightened Def Con from 0.000618137 to 0.000618138
Heightened Def Con from 0.000620569 to 0.000620576
Heightened Def Con from 0.000626474 to 0.000626475
Heightened Def Con from 0.000630647 to 0.000630649
Heightened Def Con from 0.000633239 to 0.000633241
Heightened Def Con from 0.000634825 to 0.000634826
Heightened Def Con from 0.000637455 to 0.000637462
Heightened Def Con from 0.000639008 to 0.000639009
Heightened Def Con from 0.000641666 to 0.000641673
Heightened Def Con from 0.000643192 to 0.000643194
Heightened Def Con from 0.000645869 to 0.00064587
Heightened Def Con from 0.000647384 to 0.000647385
Heightened Def Con from 0.000651581 to 0.000651583
Heightened Def Con from 0.000654263 to 0.000654265
Heightened Def Con from 0.000655783 to 0.00065579
Heightened Def Con from 0.000659991 to 0.000659998
Heightened Def Con from 0.000662639 to 0.00066264
Heightened Def Con from 0.000664202 to 0.000664203
Heightened Def Con from 0.000666819 to 0.00066682
Heightened Def Con from 0.000668419 to 0.00066842
Heightened Def Con from 0.000670995 to 0.000670996
Heightened Def Con from 0.000675167 to 0.000675168
Heightened Def Con from 0.000676865 to 0.000676866
Heightened Def Con from 0.000679336 to 0.000679343
Heightened Def Con from 0.000683502 to 0.000683503
Heightened Def Con from 0.000687664 to 0.000687666
Heightened Def Con from 0.00068956 to 0.000689561
Heightened Def Con from 0.000691827 to 0.000691828
Heightened Def Con from 0.000693797 to 0.000693804
Heightened Def Con from 0.000698034 to 0.000698041
Heightened Def Con from 0.000700146 to 0.000700148
Heightened Def Con from 0.00070227 to 0.000702272
Heightened Def Con from 0.000704306 to 0.000704307
Heightened Def Con from 0.000706507 to 0.000706508
Heightened Def Con from 0.000708466 to 0.000708467
Heightened Def Con from 0.000710743 to 0.000710744
Heightened Def Con from 0.000712627 to 0.000712634
Heightened Def Con from 0.000714975 to 0.000714977
Heightened Def Con from 0.000716789 to 0.000716791
Heightened Def Con from 0.000720954 to 0.000720956
Heightened Def Con from 0.000723435 to 0.000723436
Heightened Def Con from 0.000727659 to 0.000727666
Heightened Def Con from 0.000729296 to 0.000729297
Heightened Def Con from 0.00073188 to 0.000731887
Heightened Def Con from 0.000733471 to 0.000733472
Heightened Def Con from 0.000736096 to 0.000736103
Heightened Def Con from 0.000737652 to 0.000737654
Heightened Def Con from 0.000740308 to 0.000740315
Heightened Def Con from 0.000741838 to 0.00074184
Heightened Def Con from 0.000744516 to 0.000744517
Heightened Def Con from 0.000746027 to 0.000746029
Heightened Def Con from 0.000748717 to 0.000748724
Heightened Def Con from 0.000750223 to 0.000750224
Heightened Def Con from 0.000752913 to 0.000752914
Heightened Def Con from 0.000754423 to 0.000754425
Heightened Def Con from 0.000758628 to 0.000758635
Heightened Def Con from 0.000761291 to 0.000761298
Heightened Def Con from 0.000762839 to 0.000762841
Heightened Def Con from 0.000765473 to 0.00076548
Heightened Def Con from 0.000769651 to 0.000769652
Heightened Def Con from 0.000771275 to 0.000771276
Heightened Def Con from 0.000773825 to 0.000773826
Heightened Def Con from 0.0007755 to 0.000775507
Heightened Def Con from 0.000777995 to 0.000778002
Heightened Def Con from 0.00078216 to 0.000782167
Heightened Def Con from 0.000783957 to 0.000783958
Heightened Def Con from 0.000786324 to 0.000786331
Heightened Def Con from 0.000788188 to 0.00078819
Heightened Def Con from 0.000790484 to 0.000790491
Heightened Def Con from 0.000792423 to 0.00079243
Heightened Def Con from 0.000796658 to 0.000796659
Heightened Def Con from 0.000798803 to 0.00079881
Heightened Def Con from 0.000800896 to 0.000800903
Heightened Def Con from 0.000807123 to 0.000807124
Heightened Def Con from 0.000809369 to 0.000809371
Heightened Def Con from 0.000811284 to 0.000811291
Heightened Def Con from 0.000813604 to 0.000813611
Heightened Def Con from 0.000815446 to 0.000815447
Heightened Def Con from 0.000819611 to 0.000819612
Heightened Def Con from 0.000823778 to 0.000823779
Heightened Def Con from 0.000826291 to 0.000826292
Heightened Def Con from 0.000827949 to 0.000827956
Heightened Def Con from 0.000830513 to 0.000830514
Heightened Def Con from 0.000832123 to 0.00083213
Heightened Def Con from 0.00083473 to 0.000834737
Heightened Def Con from 0.000840487 to 0.000840488
Heightened Def Con from 0.000843152 to 0.000843154
Heightened Def Con from 0.000844676 to 0.000844677
Heightened Def Con from 0.00084887 to 0.000848877
Heightened Def Con from 0.000851555 to 0.000851556
Heightened Def Con from 0.000853068 to 0.000853075
Heightened Def Con from 0.000855747 to 0.000855748
Heightened Def Con from 0.000857272 to 0.000857273
Heightened Def Con from 0.000859936 to 0.000859938
Heightened Def Con from 0.000864119 to 0.000864121
Heightened Def Con from 0.000865695 to 0.000865696
Heightened Def Con from 0.000874136 to 0.000874138
Heightened Def Con from 0.000876644 to 0.000876645
Heightened Def Con from 0.000878363 to 0.000878364
Heightened Def Con from 0.000880812 to 0.000880814
Heightened Def Con from 0.000882593 to 0.0008826
Heightened Def Con from 0.000884977 to 0.000884978
Heightened Def Con from 0.000886824 to 0.000886825
Heightened Def Con from 0.000889137 to 0.000889138
Heightened Def Con from 0.000891059 to 0.000891066
Heightened Def Con from 0.000893298 to 0.000893305
Heightened Def Con from 0.000895294 to 0.000895295
Heightened Def Con from 0.000899529 to 0.000899536
Heightened Def Con from 0.000901615 to 0.000901617
Heightened Def Con from 0.000903767 to 0.000903768
Heightened Def Con from 0.000905774 to 0.000905776
Heightened Def Con from 0.000908004 to 0.000908005
Heightened Def Con from 0.000912239 to 0.00091224
Heightened Def Con from 0.000916472 to 0.000916479
Heightened Def Con from 0.000922427 to 0.000922428
Heightened Def Con from 0.000924926 to 0.000924928
Heightened Def Con from 0.000926596 to 0.000926597
Heightened Def Con from 0.00092915 to 0.000929151
Heightened Def Con from 0.00093077 to 0.000930777
Heightened Def Con from 0.000934948 to 0.000934949
Heightened Def Con from 0.000937584 to 0.000937585
Heightened Def Con from 0.000939131 to 0.000939132
Heightened Def Con from 0.000941795 to 0.000941796
Heightened Def Con from 0.000943318 to 0.000943319
Heightened Def Con from 0.000946001 to 0.000946002
Heightened Def Con from 0.000947511 to 0.000947513
Heightened Def Con from 0.000950201 to 0.000950202
Heightened Def Con from 0.000951708 to 0.00095171
Heightened Def Con from 0.000954397 to 0.000954398
Heightened Def Con from 0.000955911 to 0.000955918
Heightened Def Con from 0.000958587 to 0.000958594
Heightened Def Con from 0.000962772 to 0.000962779
Heightened Def Con from 0.000971129 to 0.000971136
Heightened Def Con from 0.00097277 to 0.000972771
Heightened Def Con from 0.000975301 to 0.000975308
Heightened Def Con from 0.00097947 to 0.000979477
Heightened Def Con from 0.000981224 to 0.000981225
Heightened Def Con from 0.000983634 to 0.000983635
Heightened Def Con from 0.000985454 to 0.000985456
Heightened Def Con from 0.000989689 to 0.00098969
Heightened Def Con from 0.000991959 to 0.00099196
Heightened Def Con from 0.000993925 to 0.000993932
Heightened Def Con from 0.000996118 to 0.00099612

Date: Mon Sep 30 14:11:14 2019
Total elapsed time: 12.217 seconds.

tnom = 27
temp = 27
method = modified trap
totiter = 673807
traniter = 662407
tranpoints = 163393
accept = 117196
rejected = 46559
matrix size = 82
fillins = 115
solver = Normal
Thread vector: 17.4/9.1[3] 4.2/2.9[3] 2.4/3.0[1] 0.3/1.0[1]  2592/500
Matrix Compiler1: 11.30 KB object code size  1.6/0.9/[0.5]
Matrix Compiler2: 9.54 KB object code size  0.9/1.0/[0.5]

