Circuit: * D:\Usuário\Documents\GitHub\EEL7303\Laboratorios\LAB02\Simulação\Draft1.asc

Fatal Error: Unknown subcircuit called in:
   xu2 n005 n001 +vcc -vcc n002 opamp2
