Circuit: * C:\Users\Gustavo\Documents\GitHub\EEL7303\Laboratorios\LAB05\Simulação\Lab05_2.asc

Direct Newton iteration failed to find .op point.  (Use ".option noopiter" to skip.)
Starting Gmin stepping
Gmin = 10
Gmin = 1.07374
vernier = 0.5
vernier = 0.25
vernier = 0.125
vernier = 0.0625
Gmin = 1.08884
vernier = 0.03125
vernier = 0.015625
Gmin = 1.03122
vernier = 0.0078125
vernier = 0.00390625
Gmin = 1.01823
vernier = 0.00520833
vernier = 0.00260417
Gmin = 1.01162
vernier = 0.00347222
vernier = 0.00173611
vernier = 0.000868055
Gmin = 1.00899
vernier = 0.00115741
vernier = 0.000578703
Gmin = 1.0071
vernier = 0.000771604
vernier = 0.000578703
Gmin = 1.00579
vernier = 0.000771604
vernier = 0.000578703
vernier = 0.000434027
Gmin = 1.00499
vernier = 0.000578703
vernier = 0.000434027
Gmin = 0
Gmin stepping failed

Starting source stepping with srcstepmethod=0
Source Step = 3.0303%
Source Step = 33.3333%
Source Step = 63.6364%
Source Step = 93.9394%
vernier = 0.25
Source Step = 98.4848%
Source stepping succeeded in finding the operating point.


Date: Sun Apr 28 16:52:50 2019
Total elapsed time: 1.147 seconds.

tnom = 27
temp = 27
method = modified trap
totiter = 17151
traniter = 10407
tranpoints = 5116
accept = 5071
rejected = 45
matrix size = 49
fillins = 84
solver = Normal
Matrix Compiler1: 6.49 KB object code size  3.1/1.2/[0.8]
Matrix Compiler2: 5.48 KB object code size  1.5/1.9/[0.8]

