Circuit: * C:\Users\Gustavo\Documents\GitHub\EEL7303\Laboratorios\LAB05\Simulação\Lab05.asc

Direct Newton iteration for .op point succeeded.

Date: Sun Apr 28 16:51:06 2019
Total elapsed time: 0.574 seconds.

tnom = 27
temp = 27
method = modified trap
totiter = 10066
traniter = 10058
tranpoints = 5023
accept = 5022
rejected = 1
matrix size = 18
fillins = 8
solver = Normal
Matrix Compiler1: 1.36 KB object code size  1.0/0.6/[0.3]
Matrix Compiler2: off  [0.3]/0.6/0.4

