Stray ".ends" card: .ends
Stray ".ends" card: .ends
Circuit: * C:\Users\gusta\Documents\GitHub\EEL7303\Laboratorios\Projeto - Amplificador Classe D em Ponte H\Simulação\V1.1.4\AmplificadorClasseD-V114.asc

WARNING: Node N013 is floating.

WARNING: Less than two connections to node N013.  This node is used by M10.
Warning: Pd = 0 is less than W.
Warning: Ps = 0 is less than W.
Warning: Pd = 0 is less than W.
Warning: Ps = 0 is less than W.
Direct Newton iteration failed to find .op point.  (Use ".option noopiter" to skip.)
Starting Gmin stepping
Gmin = 10
Gmin = 1.07374
Gmin = 0.115292
Gmin = 0.0123794
Gmin = 0.00132923
Gmin = 0.000142725
Gmin = 1.5325e-005
Gmin = 1.6455e-006
Gmin = 1.76685e-007
Gmin = 1.89714e-008
Gmin = 2.03704e-009
Gmin = 2.18725e-010
Gmin = 2.34854e-011
Gmin = 2.52173e-012
Gmin = 2.70769e-013
Gmin = 0
Gmin stepping succeeded in finding the operating point.

Ignoring empty pin current: Ix(u6:5)
Ignoring empty pin current: Ix(u7:vcc)
Ignoring empty pin current: Ix(u8:vcc)
Ignoring empty pin current: Ix(u9:vcc)
Ignoring empty pin current: Ix(u10:vcc)
Ignoring empty pin current: Ix(u11:vcc)
Ignoring empty pin current: Ix(u12:vcc)
Ignoring empty pin current: Ix(u13:vcc)
Ignoring empty pin current: Ix(u14:vcc)
Ignoring empty pin current: Ix(u15:vcc)
Ignoring empty pin current: Ix(u16:vcc)
Ignoring empty pin current: Ix(u17:vcc)
Ignoring empty pin current: Ix(u18:vcc)
Ignoring empty pin current: Ix(u19:vcc)
Ignoring empty pin current: Ix(u3:5)
Ignoring empty pin current: Ix(u6:5)
Ignoring empty pin current: Ix(u7:vcc)
Ignoring empty pin current: Ix(u8:vcc)
Ignoring empty pin current: Ix(u9:vcc)
Ignoring empty pin current: Ix(u10:vcc)
Ignoring empty pin current: Ix(u11:vcc)
Ignoring empty pin current: Ix(u12:vcc)
Ignoring empty pin current: Ix(u13:vcc)
Ignoring empty pin current: Ix(u14:vcc)
Ignoring empty pin current: Ix(u15:vcc)
Ignoring empty pin current: Ix(u16:vcc)
Ignoring empty pin current: Ix(u17:vcc)
Ignoring empty pin current: Ix(u18:vcc)
Ignoring empty pin current: Ix(u19:vcc)
Ignoring empty pin current: Ix(u3:5)

Date: Fri Nov 15 13:47:02 2019
Total elapsed time: 50.118 seconds.

tnom = 27
temp = 27
method = modified trap
totiter = 1142649
traniter = 1142215
tranpoints = 332115
accept = 239431
rejected = 92684
matrix size = 219
fillins = 34
solver = Normal
Thread vector: 107.2/60.5[4] 24.1/15.3[4] 23.5/9.9[4] 0.8/2.6[1]  2592/500
Matrix Compiler1: 11.71 KB object code size  11.2/5.6/[3.0]
Matrix Compiler2: 16.50 KB object code size  2.9/3.9/[2.4]

