Circuit: * D:\Usuário\Documents\GitHub\EEL7303\Laboratorios\LAB03\Simulação\Lab03.asc

Warning: Multiple definitions of model "ca3046" Type: BJT
WARNING: Less than two connections to node VO2-VO1.  This node is used by R5.
Direct Newton iteration for .op point succeeded.
N-Period=1
Fourier components of V(vo2-vo1)
DC component:0

Harmonic	Frequency	 Fourier 	Normalized	 Phase  	Normalized
 Number 	  [Hz]   	Component	 Component	[degree]	Phase [deg]
    1   	1.000e+03	0.000e+00	-1.#IOe+00	    0.00°	    0.00°
    2   	2.000e+03	0.000e+00	-1.#IOe+00	    0.00°	    0.00°
    3   	3.000e+03	0.000e+00	-1.#IOe+00	    0.00°	    0.00°
    4   	4.000e+03	0.000e+00	-1.#IOe+00	    0.00°	    0.00°
    5   	5.000e+03	0.000e+00	-1.#IOe+00	    0.00°	    0.00°
    6   	6.000e+03	0.000e+00	-1.#IOe+00	    0.00°	    0.00°
    7   	7.000e+03	0.000e+00	-1.#IOe+00	    0.00°	    0.00°
    8   	8.000e+03	0.000e+00	-1.#IOe+00	    0.00°	    0.00°
    9   	9.000e+03	0.000e+00	-1.#IOe+00	    0.00°	    0.00°
Total Harmonic Distortion: -1.#IND00%(0.000000%)



Date: Wed Apr 10 09:25:38 2019
Total elapsed time: 16.562 seconds.

tnom = 27
temp = 27
method = modified trap
totiter = 1000041
traniter = 1000034
tranpoints = 500018
accept = 500018
rejected = 0
matrix size = 21
fillins = 0
solver = Normal
Matrix Compiler1: 1.21 KB object code size  0.2/0.1/[0.1]
Matrix Compiler2: 1.63 KB object code size  0.1/0.1/[0.1]

