Circuit: * C:\Users\gusta\Documents\GitHub\EEL7303\Laboratorios\Projeto - Amplificador Classe D em Ponte H\triangular\triangularwavegen.asc

Direct Newton iteration failed to find .op point.  (Use ".option noopiter" to skip.)
Starting Gmin stepping
Gmin = 10
Gmin = 1.07374
vernier = 0.5
vernier = 0.25
vernier = 0.125
vernier = 0.0625
vernier = 0.03125
Gmin = 1.0412
vernier = 0.015625
vernier = 0.0078125
Gmin = 1.0132
vernier = 0.00390625
vernier = 0.00195313
Gmin = 1.00827
vernier = 0.00260417
vernier = 0.00130208
Gmin = 1.00515
vernier = 0.00173611
vernier = 0.000868055
vernier = 0.000434028
Gmin = 1.00406
vernier = 0.000578703
vernier = 0.000434027
Gmin = 1.00312
Gmin = 0
Gmin stepping failed

Starting source stepping with srcstepmethod=0
Source Step = 3.0303%
Source Step = 33.3333%
vernier = 0.25
Source Step = 30.3208%
Source Step = 30.3504%
Source Step = 30.38%
Source Step = 30.4096%
Source Step = 30.4392%
vernier = 0.00146484
Source Step = 30.4747%
Source Step = 30.5191%
Source Step = 30.5634%
Source Step = 30.6078%
Source Step = 30.6522%
vernier = 0.00219727
Source Step = 30.7033%
Source Step = 30.7699%
Source Step = 30.8364%
Source Step = 30.903%
Source Step = 30.9696%
vernier = 0.0032959
Source Step = 31.0429%
Source Step = 31.1427%
Source Step = 31.2426%
Source Step = 31.3425%
Source Step = 31.4424%
vernier = 0.00494385
Source Step = 31.5472%
Source Step = 31.697%
Source Step = 31.8468%
Source Step = 31.9967%
Source Step = 32.1465%
Source Step = 32.2963%
vernier = 0.00741577
Source Step = 32.521%
Source Step = 32.7457%
Source Step = 32.9705%
Source Step = 33.1952%
Source Step = 33.4199%
vernier = 0.0111237
Source Step = 33.7457%
Source Step = 34.0828%
Source Step = 34.4199%
Source Step = 34.757%
Source Step = 35.0941%
vernier = 0.0166855
Source Step = 35.566%
Source Step = 36.0716%
Source Step = 36.5772%
Source Step = 37.0828%
Source Step = 37.5885%
vernier = 0.0250282
Source Step = 38.271%
Source Step = 39.0295%
Source Step = 39.7879%
Source Step = 40.5463%
Source Step = 41.3048%
vernier = 0.0375423
Source Step = 42.2907%
Source Step = 43.4284%
Source Step = 44.566%
Source Step = 45.7037%
Source Step = 46.8413%
vernier = 0.0563135
Source Step = 48.2634%
Source Step = 49.9698%
Source Step = 51.6763%
Source Step = 53.3828%
Source Step = 55.0893%
vernier = 0.0844703
Source Step = 57.137%
Source Step = 59.6967%
Source Step = 62.2564%
Source Step = 64.8161%
Source Step = 67.3758%
vernier = 0.126705
Source Step = 70.3195%
Source Step = 74.1591%
Source Step = 77.9986%
Source Step = 81.8382%
Source Step = 85.6777%
vernier = 0.190058
Source Step = 89.9012%
Source Step = 95.6606%
Source Step = 100%
Source stepping succeeded in finding the operating point.


Date: Sun Sep 29 22:02:58 2019
Total elapsed time: 3.875 seconds.

tnom = 27
temp = 27
method = modified trap
totiter = 280468
traniter = 272673
tranpoints = 87670
accept = 62864
rejected = 24806
matrix size = 57
fillins = 68
solver = Normal
Thread vector: 8.9/7.4[2] 2.8/5.4[1] 2.1/2.8[1] 0.2/1.9[1]  2592/500
Matrix Compiler1: 6.33 KB object code size  1.2/0.7/[0.3]
Matrix Compiler2: 6.70 KB object code size  0.8/1.1/[0.4]

