Stray ".ends" card: .ends
Stray ".ends" card: .ends
Circuit: * C:\Users\gusta\Documents\GitHub\EEL7303\Laboratorios\Projeto - Amplificador Classe D em Ponte H\Simulação\V1.1.5\AmplificadorClasseD-V115.asc

Warning: Pd = 0 is less than W.
Warning: Ps = 0 is less than W.
Warning: Pd = 0 is less than W.
Warning: Ps = 0 is less than W.
Direct Newton iteration failed to find .op point.  (Use ".option noopiter" to skip.)
Starting Gmin stepping
Gmin = 10
Gmin = 1.07374
Gmin = 0.115292
Gmin = 0.0123794
Gmin = 0.00132923
Gmin = 0.000142725
Gmin = 1.5325e-005
Gmin = 1.6455e-006
Gmin = 1.76685e-007
Gmin = 1.89714e-008
Gmin = 2.03704e-009
Gmin = 2.18725e-010
Gmin = 2.34854e-011
Gmin = 2.52173e-012
Gmin = 2.70769e-013
Gmin = 0
Gmin stepping succeeded in finding the operating point.

Ignoring empty pin current: Ix(u6:5)
Ignoring empty pin current: Ix(u18:vcc)
Ignoring empty pin current: Ix(u19:vcc)
Ignoring empty pin current: Ix(u3:5)
Ignoring empty pin current: Ix(u20:vcc)
Ignoring empty pin current: Ix(u26:vcc)
Ignoring empty pin current: Ix(u27:vcc)
Ignoring empty pin current: Ix(u34:vcc)
Ignoring empty pin current: Ix(u21:vcc)
Ignoring empty pin current: Ix(u22:vcc)
Ignoring empty pin current: Ix(u23:vcc)
Ignoring empty pin current: Ix(u24:vcc)
Ignoring empty pin current: Ix(u25:vcc)
Ignoring empty pin current: Ix(u35:vcc)
Ignoring empty pin current: Ix(u28:vcc)
Ignoring empty pin current: Ix(u29:vcc)
Ignoring empty pin current: Ix(u30:vcc)
Ignoring empty pin current: Ix(u31:vcc)
Ignoring empty pin current: Ix(u32:vcc)
Ignoring empty pin current: Ix(u33:vcc)
Ignoring empty pin current: Ix(u36:vcc)
Ignoring empty pin current: Ix(u37:vcc)
Ignoring empty pin current: Ix(u38:vcc)
Ignoring empty pin current: Ix(u6:5)
Ignoring empty pin current: Ix(u18:vcc)
Ignoring empty pin current: Ix(u19:vcc)
Ignoring empty pin current: Ix(u3:5)
Ignoring empty pin current: Ix(u20:vcc)
Ignoring empty pin current: Ix(u26:vcc)
Ignoring empty pin current: Ix(u27:vcc)
Ignoring empty pin current: Ix(u34:vcc)
Ignoring empty pin current: Ix(u21:vcc)
Ignoring empty pin current: Ix(u22:vcc)
Ignoring empty pin current: Ix(u23:vcc)
Ignoring empty pin current: Ix(u24:vcc)
Ignoring empty pin current: Ix(u25:vcc)
Ignoring empty pin current: Ix(u35:vcc)
Ignoring empty pin current: Ix(u28:vcc)
Ignoring empty pin current: Ix(u29:vcc)
Ignoring empty pin current: Ix(u30:vcc)
Ignoring empty pin current: Ix(u31:vcc)
Ignoring empty pin current: Ix(u32:vcc)
Ignoring empty pin current: Ix(u33:vcc)
Ignoring empty pin current: Ix(u36:vcc)
Ignoring empty pin current: Ix(u37:vcc)
Ignoring empty pin current: Ix(u38:vcc)

Date: Fri Nov 22 18:23:11 2019
Total elapsed time: 370.549 seconds.

tnom = 27
temp = 27
method = modified trap
totiter = 8346632
traniter = 8346198
tranpoints = 2391247
accept = 1738237
rejected = 653010
matrix size = 298
fillins = 43
solver = Normal
Thread vector: 57.0/25.3[4] 28.0/16.4[4] 10.2/7.9[4] 0.9/2.0[1]  2592/500
Matrix Compiler1: 14.64 KB object code size  19.0/10.7/[2.6]
Matrix Compiler2: 21.28 KB object code size  5.4/5.1/[2.0]

