Circuit: * C:\Users\Gustavo\Documents\UFSC\7ª Fase\Circuitos Eletrônicos Analógicos\LAB00\Simulação\Lab00.asc

Direct Newton iteration for .op point succeeded.

Date: Wed Mar 20 11:44:53 2019
Total elapsed time: 0.109 seconds.

tnom = 27
temp = 27
method = trap
totiter = 5
traniter = 0
tranpoints = 0
accept = 0
rejected = 0
matrix size = 11
fillins = 0
solver = Normal
Matrix Compiler1:      33 opcodes
Matrix Compiler2: 847 bytes object code size
