Circuit: * D:\Usuário\Documents\GitHub\EEL7303\Laboratorios\Laboratorio1\Lab1.asc

WARNING: Node NC_01 is floating.

WARNING: Less than two connections to node NC_01.  This node is used by C2.
Direct Newton iteration for .op point succeeded.

Date: Tue Mar 19 09:23:07 2019
Total elapsed time: 0.041 seconds.

tnom = 27
temp = 27
method = trap
totiter = 5
traniter = 0
tranpoints = 0
accept = 0
rejected = 0
matrix size = 11
fillins = 0
solver = Normal
Matrix Compiler1:      33 opcodes
Matrix Compiler2: 847 bytes object code size
