Circuit: * C:\Users\Gustavo\Documents\GitHub\EEL7303\Laboratorios\Projeto\Simulação\TemperatureSensorPrototypeV2\Temperature_Sensor_Prototype2.asc

Limiting rise time of source v§start_up_lock to 1.95399e-015
Limiting fall time of source v§start_up_lock to 1.95399e-015
Direct Newton iteration failed to find .op point.  (Use ".option noopiter" to skip.)
Starting Gmin stepping
Gmin = 10
Gmin = 1.07374
Gmin = 0.115292
Gmin = 0.0123794
Gmin = 0.00132923
Gmin = 0.000142725
Gmin = 1.5325e-005
Gmin = 1.6455e-006
vernier = 0.5
vernier = 0.25
vernier = 0.125
vernier = 0.0625
vernier = 0.03125
vernier = 0.015625
vernier = 0.0078125
vernier = 0.00390625
vernier = 0.00195313
vernier = 0.000976563
Gmin = 2.05688e-006
vernier = 0.000488281
Gmin = 0
Gmin stepping failed

Starting source stepping with srcstepmethod=0
Source Step = 3.0303%
Source Step = 33.3333%
Source Step = 63.6364%
Source Step = 93.9394%
Pseudo transient terminated at 100.111 s, solution accepted ready or not!
.step temp=-25°C
Changing Tseed to 1e-007
Changing Tseed to 1e-009
Changing Tseed to 1e-006
Changing Tseed to 1e-010
.step temp=0°C
.step temp=25°C
.step temp=50°C
.step temp=75°C
.step temp=100°C

Date: Sat May 11 21:52:15 2019
Total elapsed time: 313.883 seconds.

tnom = 27
temp = 100
method = modified trap
totiter = 602169
traniter = 592257
tranpoints = 254890
accept = 201817
rejected = 53070
matrix size = 77
fillins = 155
solver = Normal
Thread vector: 28.7/18.5[2] 11.2/7.8[2] 2.4/5.0[1] 1.1/3.1[1]  2592/500
Matrix Compiler1: 11.67 KB object code size  8.7/4.4/[3.1]
Matrix Compiler2: 9.08 KB object code size  3.4/2.8/[1.7]

